/*---------------------------------------------------------------------------*\
| =========                 |                                                 |
| \\      /  F ield         | OpenFOAM: The Open Source CFD Toolbox           |
|  \\    /   O peration     | Version:  2.3.0                                 |
|   \\  /    A nd           | Web:      www.OpenFOAM.org                      |
|    \\/     M anipulation  |                                                 |
\*---------------------------------------------------------------------------*/
Build  : 2.3.0-f5222ca19ce6
Exec   : interTempFoam
Date   : Sep 27 2014
Time   : 17:57:10
Host   : "her0ms-air"
PID    : 15269
Case   : /Volumes/OpenFOAM-v2.3.0/her0m-2.3.0/run/damBreakTemp
nProcs : 1
sigFpe : Enabling floating point exception trapping (FOAM_SIGFPE).
fileModificationChecking : Monitoring run-time modified files using timeStampMaster
allowSystemOperations : Disallowing user-supplied system call operations

// * * * * * * * * * * * * * * * * * * * * * * * * * * * * * * * * * * * * * //
Create time

Create mesh for time = 0


PIMPLE: Operating solver in PISO mode

Reading field p_rgh

Reading field T

Reading field U

Reading/calculating face flux field phi

Reading transportProperties

Selecting incompressible transport model Newtonian
Selecting incompressible transport model Newtonian
Selecting turbulence model type laminar

Reading g
Calculating field g.h

No finite volume options present

time step continuity errors : sum local = 0, global = 0, cumulative = 0
DICPCG:  Solving for pcorr, Initial residual = 0, Final residual = 0, No Iterations 0
time step continuity errors : sum local = 0, global = 0, cumulative = 0
Courant Number mean: 0 max: 0

Starting time loop

Courant Number mean: 0 max: 0
Interface Courant Number mean: 0 max: 0
deltaT = 0.00119048
Time = 0.00119048

smoothSolver:  Solving for alpha.water, Initial residual = 0, Final residual = 0, No Iterations 0
Phase-1 volume fraction = 0.130194  Min(alpha1) = 0  Max(alpha1) = 1
MULES: Correcting alpha.water
MULES: Correcting alpha.water
Phase-1 volume fraction = 0.130194  Min(alpha1) = 0  Max(alpha1) = 1
DICPCG:  Solving for p_rgh, Initial residual = 1, Final residual = 0.00312169, No Iterations 1
time step continuity errors : sum local = 0.000863663, global = -1.26728e-12, cumulative = -1.26728e-12
DICPCG:  Solving for p_rgh, Initial residual = 0.00146342, Final residual = 6.18289e-05, No Iterations 13
time step continuity errors : sum local = 3.6494e-05, global = -1.00159e-05, cumulative = -1.00159e-05
DICPCG:  Solving for p_rgh, Initial residual = 5.08539e-05, Final residual = 8.19125e-08, No Iterations 48
time step continuity errors : sum local = 5.88484e-08, global = 1.01685e-08, cumulative = -1.00057e-05
DILUPBiCG:  Solving for T, Initial residual = 1.86104e-07, Final residual = 1.83053e-14, No Iterations 1
ExecutionTime = 0.03 s  ClockTime = 0 s

Courant Number mean: 0.00124881 max: 0.107249
Interface Courant Number mean: 0 max: 0
deltaT = 0.00139456
Time = 0.00258503

smoothSolver:  Solving for alpha.water, Initial residual = 0.000282089, Final residual = 1.76373e-12, No Iterations 2
Phase-1 volume fraction = 0.130194  Min(alpha1) = 0  Max(alpha1) = 1
MULES: Correcting alpha.water
MULES: Correcting alpha.water
Phase-1 volume fraction = 0.130194  Min(alpha1) = -4.00828e-10  Max(alpha1) = 1
DICPCG:  Solving for p_rgh, Initial residual = 0.00309081, Final residual = 0.000102087, No Iterations 2
time step continuity errors : sum local = 8.63513e-05, global = 2.66749e-08, cumulative = -9.97901e-06
DICPCG:  Solving for p_rgh, Initial residual = 0.000212067, Final residual = 9.2268e-06, No Iterations 35
time step continuity errors : sum local = 7.80831e-06, global = -8.61261e-08, cumulative = -1.00651e-05
DICPCG:  Solving for p_rgh, Initial residual = 2.93942e-05, Final residual = 9.61235e-08, No Iterations 43
time step continuity errors : sum local = 8.13174e-08, global = 5.63918e-09, cumulative = -1.00595e-05
DILUPBiCG:  Solving for T, Initial residual = 9.79561e-07, Final residual = 1.52788e-08, No Iterations 1
ExecutionTime = 0.05 s  ClockTime = 0 s

Courant Number mean: 0.00181498 max: 0.0549739
Interface Courant Number mean: 4.99637e-05 max: 0.0549739
deltaT = 0.001635
Time = 0.00422003

smoothSolver:  Solving for alpha.water, Initial residual = 0.000190534, Final residual = 8.80384e-09, No Iterations 1
Phase-1 volume fraction = 0.130194  Min(alpha1) = 0  Max(alpha1) = 1
MULES: Correcting alpha.water
MULES: Correcting alpha.water
Phase-1 volume fraction = 0.130194  Min(alpha1) = -1.55066e-13  Max(alpha1) = 1
DICPCG:  Solving for p_rgh, Initial residual = 0.00263487, Final residual = 6.10051e-05, No Iterations 2
time step continuity errors : sum local = 6.43516e-05, global = -4.77536e-10, cumulative = -1.006e-05
DICPCG:  Solving for p_rgh, Initial residual = 6.1861e-05, Final residual = 2.43736e-06, No Iterations 36
time step continuity errors : sum local = 2.5694e-06, global = 3.27118e-09, cumulative = -1.00567e-05
DICPCG:  Solving for p_rgh, Initial residual = 2.89597e-06, Final residual = 7.0553e-08, No Iterations 19
time step continuity errors : sum local = 7.44228e-08, global = -5.43402e-09, cumulative = -1.00621e-05
DILUPBiCG:  Solving for T, Initial residual = 6.3274e-06, Final residual = 4.10777e-11, No Iterations 1
ExecutionTime = 0.06 s  ClockTime = 0 s

Courant Number mean: 0.00313711 max: 0.051472
Interface Courant Number mean: 4.24527e-05 max: 0.0434222
deltaT = 0.0019075
Time = 0.00612753

smoothSolver:  Solving for alpha.water, Initial residual = 0.000225837, Final residual = 6.90449e-14, No Iterations 2
Phase-1 volume fraction = 0.130194  Min(alpha1) = 0  Max(alpha1) = 1
MULES: Correcting alpha.water
MULES: Correcting alpha.water
Phase-1 volume fraction = 0.130194  Min(alpha1) = -7.3812e-14  Max(alpha1) = 1
DICPCG:  Solving for p_rgh, Initial residual = 0.00332238, Final residual = 0.000146584, No Iterations 1
time step continuity errors : sum local = 0.000193449, global = -1.96042e-08, cumulative = -1.00817e-05
DICPCG:  Solving for p_rgh, Initial residual = 0.000149452, Final residual = 6.72723e-06, No Iterations 10
time step continuity errors : sum local = 8.86301e-06, global = -3.69127e-07, cumulative = -1.04509e-05
DICPCG:  Solving for p_rgh, Initial residual = 7.15173e-06, Final residual = 8.87036e-08, No Iterations 37
time step continuity errors : sum local = 1.16898e-07, global = -1.06012e-08, cumulative = -1.04615e-05
DILUPBiCG:  Solving for T, Initial residual = 2.6178e-06, Final residual = 2.41322e-11, No Iterations 1
ExecutionTime = 0.08 s  ClockTime = 0 s

Courant Number mean: 0.0051411 max: 0.0598761
Interface Courant Number mean: 0.000132038 max: 0.047509
deltaT = 0.00219362
Time = 0.00832115

smoothSolver:  Solving for alpha.water, Initial residual = 0.000321724, Final residual = 4.24282e-13, No Iterations 2
Phase-1 volume fraction = 0.130194  Min(alpha1) = 0  Max(alpha1) = 1
MULES: Correcting alpha.water
MULES: Correcting alpha.water
Phase-1 volume fraction = 0.130194  Min(alpha1) = -3.68731e-10  Max(alpha1) = 1
DICPCG:  Solving for p_rgh, Initial residual = 0.00488262, Final residual = 0.000156175, No Iterations 1
time step continuity errors : sum local = 0.000256145, global = -1.42567e-08, cumulative = -1.04757e-05
DICPCG:  Solving for p_rgh, Initial residual = 0.000158795, Final residual = 7.44274e-06, No Iterations 9
time step continuity errors : sum local = 1.21697e-05, global = -5.85685e-08, cumulative = -1.05343e-05
DICPCG:  Solving for p_rgh, Initial residual = 8.10959e-06, Final residual = 9.05601e-08, No Iterations 37
time step continuity errors : sum local = 1.48126e-07, global = 1.67815e-09, cumulative = -1.05326e-05
DILUPBiCG:  Solving for T, Initial residual = 3.86497e-06, Final residual = 7.81854e-11, No Iterations 1
ExecutionTime = 0.09 s  ClockTime = 0 s

Courant Number mean: 0.00792297 max: 0.073204
Interface Courant Number mean: 0.000283181 max: 0.0656708
deltaT = 0.00260493
Time = 0.0109261

smoothSolver:  Solving for alpha.water, Initial residual = 0.000479653, Final residual = 2.40878e-12, No Iterations 2
Phase-1 volume fraction = 0.130194  Min(alpha1) = 0  Max(alpha1) = 1
MULES: Correcting alpha.water
MULES: Correcting alpha.water
Phase-1 volume fraction = 0.130194  Min(alpha1) = -2.86314e-09  Max(alpha1) = 1
DICPCG:  Solving for p_rgh, Initial residual = 0.00739967, Final residual = 0.000178049, No Iterations 1
time step continuity errors : sum local = 0.000392305, global = 2.48948e-08, cumulative = -1.05077e-05
DICPCG:  Solving for p_rgh, Initial residual = 0.000180394, Final residual = 8.47938e-06, No Iterations 9
time step continuity errors : sum local = 1.85893e-05, global = 9.47581e-08, cumulative = -1.0413e-05
DICPCG:  Solving for p_rgh, Initial residual = 1.01263e-05, Final residual = 9.33646e-08, No Iterations 37
time step continuity errors : sum local = 2.04777e-07, global = 5.0281e-09, cumulative = -1.04079e-05
DILUPBiCG:  Solving for T, Initial residual = 5.86721e-06, Final residual = 2.81486e-10, No Iterations 1
ExecutionTime = 0.1 s  ClockTime = 0 s

Courant Number mean: 0.0122482 max: 0.101662
Interface Courant Number mean: 0.00049091 max: 0.0991078
deltaT = 0.00300569
Time = 0.0139318

smoothSolver:  Solving for alpha.water, Initial residual = 0.000691586, Final residual = 1.10283e-11, No Iterations 2
Phase-1 volume fraction = 0.130194  Min(alpha1) = 0  Max(alpha1) = 1
MULES: Correcting alpha.water
MULES: Correcting alpha.water
Phase-1 volume fraction = 0.130194  Min(alpha1) = -9.98959e-09  Max(alpha1) = 1
DICPCG:  Solving for p_rgh, Initial residual = 0.0108123, Final residual = 0.000200311, No Iterations 1
time step continuity errors : sum local = 0.000564235, global = 1.73539e-08, cumulative = -1.03906e-05
DICPCG:  Solving for p_rgh, Initial residual = 0.000203024, Final residual = 9.62759e-06, No Iterations 10
time step continuity errors : sum local = 2.69271e-05, global = 2.78637e-07, cumulative = -1.01119e-05
DICPCG:  Solving for p_rgh, Initial residual = 1.28686e-05, Final residual = 9.28227e-08, No Iterations 36
time step continuity errors : sum local = 2.59833e-07, global = -1.32534e-09, cumulative = -1.01133e-05
DILUPBiCG:  Solving for T, Initial residual = 8.30161e-06, Final residual = 8.59104e-10, No Iterations 1
ExecutionTime = 0.11 s  ClockTime = 0 s

Courant Number mean: 0.017922 max: 0.146402
Interface Courant Number mean: 0.000788414 max: 0.143379
deltaT = 0.00360682
Time = 0.0175386

smoothSolver:  Solving for alpha.water, Initial residual = 0.00102033, Final residual = 5.43447e-11, No Iterations 2
Phase-1 volume fraction = 0.130194  Min(alpha1) = 0  Max(alpha1) = 1
MULES: Correcting alpha.water
MULES: Correcting alpha.water
Phase-1 volume fraction = 0.130194  Min(alpha1) = -2.68502e-08  Max(alpha1) = 1
DICPCG:  Solving for p_rgh, Initial residual = 0.0161062, Final residual = 0.000238594, No Iterations 1
time step continuity errors : sum local = 0.000927661, global = 3.74227e-09, cumulative = -1.01095e-05
DICPCG:  Solving for p_rgh, Initial residual = 0.000243427, Final residual = 1.1468e-05, No Iterations 10
time step continuity errors : sum local = 4.41193e-05, global = 1.11389e-06, cumulative = -8.99563e-06
DICPCG:  Solving for p_rgh, Initial residual = 1.78734e-05, Final residual = 9.91442e-08, No Iterations 38
time step continuity errors : sum local = 3.8188e-07, global = -6.85251e-08, cumulative = -9.06416e-06
DILUPBiCG:  Solving for T, Initial residual = 1.26631e-05, Final residual = 3.43893e-09, No Iterations 1
ExecutionTime = 0.12 s  ClockTime = 0 s

Courant Number mean: 0.0270099 max: 0.208887
Interface Courant Number mean: 0.001328 max: 0.208887
deltaT = 0.00405768
Time = 0.0215963

smoothSolver:  Solving for alpha.water, Initial residual = 0.0014009, Final residual = 1.79957e-10, No Iterations 2
Phase-1 volume fraction = 0.130194  Min(alpha1) = 0  Max(alpha1) = 1
MULES: Correcting alpha.water
MULES: Correcting alpha.water
Phase-1 volume fraction = 0.130194  Min(alpha1) = -3.26684e-07  Max(alpha1) = 1
DICPCG:  Solving for p_rgh, Initial residual = 0.0223161, Final residual = 0.000264607, No Iterations 1
time step continuity errors : sum local = 0.00124502, global = -1.23063e-07, cumulative = -9.18722e-06
DICPCG:  Solving for p_rgh, Initial residual = 0.00027224, Final residual = 1.31461e-05, No Iterations 10
time step continuity errors : sum local = 6.09432e-05, global = 2.37372e-06, cumulative = -6.8135e-06
DICPCG:  Solving for p_rgh, Initial residual = 2.3087e-05, Final residual = 9.75118e-08, No Iterations 40
time step continuity errors : sum local = 4.52896e-07, global = -7.33939e-08, cumulative = -6.88689e-06
DILUPBiCG:  Solving for T, Initial residual = 1.98398e-05, Final residual = 2.31061e-08, No Iterations 1
ExecutionTime = 0.14 s  ClockTime = 0 s

Courant Number mean: 0.0373879 max: 0.274915
Interface Courant Number mean: 0.00182624 max: 0.274107
deltaT = 0.00473396
Time = 0.0263302

smoothSolver:  Solving for alpha.water, Initial residual = 0.00196678, Final residual = 5.87114e-10, No Iterations 2
Phase-1 volume fraction = 0.130194  Min(alpha1) = 0  Max(alpha1) = 1
MULES: Correcting alpha.water
MULES: Correcting alpha.water
Phase-1 volume fraction = 0.130194  Min(alpha1) = -1.51137e-08  Max(alpha1) = 1
DICPCG:  Solving for p_rgh, Initial residual = 0.0309468, Final residual = 0.000252069, No Iterations 1
time step continuity errors : sum local = 0.00153188, global = -2.57459e-08, cumulative = -6.91264e-06
DICPCG:  Solving for p_rgh, Initial residual = 0.000266008, Final residual = 1.29038e-05, No Iterations 11
time step continuity errors : sum local = 7.67315e-05, global = 1.24391e-06, cumulative = -5.66873e-06
DICPCG:  Solving for p_rgh, Initial residual = 3.02233e-05, Final residual = 9.59355e-08, No Iterations 43
time step continuity errors : sum local = 5.72224e-07, global = -2.91904e-08, cumulative = -5.69792e-06
DILUPBiCG:  Solving for T, Initial residual = 2.80968e-05, Final residual = 3.08919e-11, No Iterations 2
ExecutionTime = 0.15 s  ClockTime = 0 s

Courant Number mean: 0.0533964 max: 0.387469
Interface Courant Number mean: 0.00270613 max: 0.375954
deltaT = 0.00473396
Time = 0.0310642

smoothSolver:  Solving for alpha.water, Initial residual = 0.00237831, Final residual = 1.53768e-13, No Iterations 3
Phase-1 volume fraction = 0.130194  Min(alpha1) = 0  Max(alpha1) = 1
MULES: Correcting alpha.water
MULES: Correcting alpha.water
Phase-1 volume fraction = 0.130194  Min(alpha1) = -3.27948e-08  Max(alpha1) = 1
DICPCG:  Solving for p_rgh, Initial residual = 0.0379007, Final residual = 0.000261004, No Iterations 1
time step continuity errors : sum local = 0.00149513, global = 8.23417e-08, cumulative = -5.61558e-06
DICPCG:  Solving for p_rgh, Initial residual = 0.000278642, Final residual = 1.36e-05, No Iterations 11
time step continuity errors : sum local = 7.58455e-05, global = 5.52246e-06, cumulative = -9.31241e-08
DICPCG:  Solving for p_rgh, Initial residual = 3.33799e-05, Final residual = 8.02984e-08, No Iterations 39
time step continuity errors : sum local = 4.49854e-07, global = -3.8597e-08, cumulative = -1.31721e-07
DILUPBiCG:  Solving for T, Initial residual = 3.04431e-05, Final residual = 6.23705e-08, No Iterations 1
ExecutionTime = 0.16 s  ClockTime = 0 s

Courant Number mean: 0.0628398 max: 0.432293
Interface Courant Number mean: 0.00328139 max: 0.423311
deltaT = 0.00473396
Time = 0.0357981

smoothSolver:  Solving for alpha.water, Initial residual = 0.00275582, Final residual = 3.30911e-13, No Iterations 3
Phase-1 volume fraction = 0.130194  Min(alpha1) = 0  Max(alpha1) = 1
MULES: Correcting alpha.water
MULES: Correcting alpha.water
Phase-1 volume fraction = 0.130194  Min(alpha1) = -4.36657e-08  Max(alpha1) = 1
DICPCG:  Solving for p_rgh, Initial residual = 0.0450843, Final residual = 0.000307247, No Iterations 1
time step continuity errors : sum local = 0.00164487, global = -4.18127e-08, cumulative = -1.73534e-07
DICPCG:  Solving for p_rgh, Initial residual = 0.000335256, Final residual = 1.64265e-05, No Iterations 10
time step continuity errors : sum local = 8.50479e-05, global = 6.52346e-06, cumulative = 6.34992e-06
DICPCG:  Solving for p_rgh, Initial residual = 4.11869e-05, Final residual = 9.95977e-08, No Iterations 39
time step continuity errors : sum local = 5.18471e-07, global = -4.2683e-08, cumulative = 6.30724e-06
DILUPBiCG:  Solving for T, Initial residual = 3.64417e-05, Final residual = 8.89045e-08, No Iterations 1
ExecutionTime = 0.17 s  ClockTime = 0 s

Courant Number mean: 0.0719266 max: 0.509538
Interface Courant Number mean: 0.00407418 max: 0.499925
deltaT = 0.00473396
Time = 0.0405321

smoothSolver:  Solving for alpha.water, Initial residual = 0.00311036, Final residual = 5.08914e-10, No Iterations 3
Phase-1 volume fraction = 0.130194  Min(alpha1) = 0  Max(alpha1) = 1
MULES: Correcting alpha.water
MULES: Correcting alpha.water
Phase-1 volume fraction = 0.130194  Min(alpha1) = -2.12536e-08  Max(alpha1) = 1
DICPCG:  Solving for p_rgh, Initial residual = 0.0511812, Final residual = 0.000360638, No Iterations 1
time step continuity errors : sum local = 0.00178324, global = -8.11193e-08, cumulative = 6.22612e-06
DICPCG:  Solving for p_rgh, Initial residual = 0.000401358, Final residual = 1.86517e-05, No Iterations 10
time step continuity errors : sum local = 8.86787e-05, global = 8.23429e-06, cumulative = 1.44604e-05
DICPCG:  Solving for p_rgh, Initial residual = 5.1259e-05, Final residual = 8.6526e-08, No Iterations 30
time step continuity errors : sum local = 4.14391e-07, global = -1.47258e-07, cumulative = 1.43132e-05
DILUPBiCG:  Solving for T, Initial residual = 4.35254e-05, Final residual = 8.91745e-10, No Iterations 2
ExecutionTime = 0.19 s  ClockTime = 0 s

Courant Number mean: 0.0808717 max: 0.546354
Interface Courant Number mean: 0.00496436 max: 0.537593
deltaT = 0.00473396
Time = 0.045266

smoothSolver:  Solving for alpha.water, Initial residual = 0.00345541, Final residual = 2.89222e-09, No Iterations 3
Phase-1 volume fraction = 0.130194  Min(alpha1) = 0  Max(alpha1) = 1
MULES: Correcting alpha.water
MULES: Correcting alpha.water
Phase-1 volume fraction = 0.130194  Min(alpha1) = -3.31914e-09  Max(alpha1) = 1
DICPCG:  Solving for p_rgh, Initial residual = 0.0551093, Final residual = 0.000446852, No Iterations 1
time step continuity errors : sum local = 0.00202371, global = -3.0562e-07, cumulative = 1.40075e-05
DICPCG:  Solving for p_rgh, Initial residual = 0.000498602, Final residual = 2.20321e-05, No Iterations 10
time step continuity errors : sum local = 9.5651e-05, global = 1.1295e-05, cumulative = 2.53025e-05
DICPCG:  Solving for p_rgh, Initial residual = 6.53598e-05, Final residual = 8.98103e-08, No Iterations 30
time step continuity errors : sum local = 3.93748e-07, global = -3.75436e-08, cumulative = 2.5265e-05
DILUPBiCG:  Solving for T, Initial residual = 5.31325e-05, Final residual = 2.03078e-09, No Iterations 2
ExecutionTime = 0.2 s  ClockTime = 0 s

Courant Number mean: 0.0896796 max: 0.602443
Interface Courant Number mean: 0.00654879 max: 0.575368
deltaT = 0.00473396
Time = 0.05

smoothSolver:  Solving for alpha.water, Initial residual = 0.00378547, Final residual = 5.56656e-09, No Iterations 3
Phase-1 volume fraction = 0.130194  Min(alpha1) = 0  Max(alpha1) = 1
MULES: Correcting alpha.water
MULES: Correcting alpha.water
Phase-1 volume fraction = 0.130194  Min(alpha1) = -3.21096e-08  Max(alpha1) = 1
DICPCG:  Solving for p_rgh, Initial residual = 0.0560069, Final residual = 0.000544975, No Iterations 1
time step continuity errors : sum local = 0.0022551, global = -1.56964e-08, cumulative = 2.52493e-05
DICPCG:  Solving for p_rgh, Initial residual = 0.000605165, Final residual = 2.65833e-05, No Iterations 10
time step continuity errors : sum local = 0.000105351, global = 1.62508e-05, cumulative = 4.15e-05
DICPCG:  Solving for p_rgh, Initial residual = 8.11437e-05, Final residual = 9.71783e-08, No Iterations 31
time step continuity errors : sum local = 3.89784e-07, global = -8.1882e-08, cumulative = 4.14182e-05
DILUPBiCG:  Solving for T, Initial residual = 5.91193e-05, Final residual = 1.80865e-09, No Iterations 2
ExecutionTime = 0.23 s  ClockTime = 0 s

Courant Number mean: 0.0984193 max: 0.654885
Interface Courant Number mean: 0.00739782 max: 0.618773
deltaT = 0.005
Time = 0.055

smoothSolver:  Solving for alpha.water, Initial residual = 0.00435518, Final residual = 9.79945e-11, No Iterations 4
Phase-1 volume fraction = 0.130194  Min(alpha1) = 0  Max(alpha1) = 1
MULES: Correcting alpha.water
MULES: Correcting alpha.water
Phase-1 volume fraction = 0.130194  Min(alpha1) = -9.04852e-08  Max(alpha1) = 1
DICPCG:  Solving for p_rgh, Initial residual = 0.0552441, Final residual = 0.000747788, No Iterations 1
time step continuity errors : sum local = 0.00313181, global = -2.58817e-07, cumulative = 4.11593e-05
DICPCG:  Solving for p_rgh, Initial residual = 0.000837282, Final residual = 3.87952e-05, No Iterations 10
time step continuity errors : sum local = 0.000155697, global = 2.52509e-05, cumulative = 6.64102e-05
DICPCG:  Solving for p_rgh, Initial residual = 0.000119464, Final residual = 6.8966e-08, No Iterations 50
time step continuity errors : sum local = 2.81107e-07, global = -3.86543e-09, cumulative = 6.64064e-05
DILUPBiCG:  Solving for T, Initial residual = 7.24892e-05, Final residual = 6.56962e-09, No Iterations 2
ExecutionTime = 0.24 s  ClockTime = 0 s

Courant Number mean: 0.113855 max: 0.728081
Interface Courant Number mean: 0.00858955 max: 0.700995
deltaT = 0.005625
Time = 0.060625

smoothSolver:  Solving for alpha.water, Initial residual = 0.00536716, Final residual = 3.62266e-10, No Iterations 4
Phase-1 volume fraction = 0.130194  Min(alpha1) = 0  Max(alpha1) = 1
MULES: Correcting alpha.water
MULES: Correcting alpha.water
Phase-1 volume fraction = 0.130194  Min(alpha1) = -7.25829e-07  Max(alpha1) = 1.00003
DICPCG:  Solving for p_rgh, Initial residual = 0.0533716, Final residual = 0.00116514, No Iterations 1
time step continuity errors : sum local = 0.00560638, global = -2.59996e-08, cumulative = 6.63804e-05
DICPCG:  Solving for p_rgh, Initial residual = 0.00131494, Final residual = 5.38648e-05, No Iterations 11
time step continuity errors : sum local = 0.000248562, global = 5.17104e-05, cumulative = 0.000118091
DICPCG:  Solving for p_rgh, Initial residual = 0.000187237, Final residual = 9.86819e-08, No Iterations 47
time step continuity errors : sum local = 4.64853e-07, global = -1.89396e-08, cumulative = 0.000118072
DILUPBiCG:  Solving for T, Initial residual = 9.2038e-05, Final residual = 1.158e-08, No Iterations 2
ExecutionTime = 0.26 s  ClockTime = 0 s

Courant Number mean: 0.140669 max: 0.886125
Interface Courant Number mean: 0.0114477 max: 0.840397
deltaT = 0.005625
Time = 0.06625

smoothSolver:  Solving for alpha.water, Initial residual = 0.00584166, Final residual = 1.97774e-09, No Iterations 4
Phase-1 volume fraction = 0.130194  Min(alpha1) = 0  Max(alpha1) = 1
MULES: Correcting alpha.water
MULES: Correcting alpha.water
Phase-1 volume fraction = 0.130194  Min(alpha1) = -4.3607e-06  Max(alpha1) = 1.00006
DICPCG:  Solving for p_rgh, Initial residual = 0.0426014, Final residual = 0.0014014, No Iterations 1
time step continuity errors : sum local = 0.00638686, global = -4.24416e-07, cumulative = 0.000117647
DICPCG:  Solving for p_rgh, Initial residual = 0.00157094, Final residual = 7.15784e-05, No Iterations 10
time step continuity errors : sum local = 0.000316799, global = 6.66215e-05, cumulative = 0.000184269
DICPCG:  Solving for p_rgh, Initial residual = 0.000226698, Final residual = 8.77838e-08, No Iterations 50
time step continuity errors : sum local = 3.97705e-07, global = -3.51698e-08, cumulative = 0.000184234
DILUPBiCG:  Solving for T, Initial residual = 0.000106642, Final residual = 8.12634e-10, No Iterations 3
ExecutionTime = 0.27 s  ClockTime = 0 s

Courant Number mean: 0.152675 max: 0.959094
Interface Courant Number mean: 0.0132032 max: 0.88089
deltaT = 0.005625
Time = 0.071875

smoothSolver:  Solving for alpha.water, Initial residual = 0.00625557, Final residual = 3.72986e-09, No Iterations 4
Phase-1 volume fraction = 0.130194  Min(alpha1) = 0  Max(alpha1) = 1
MULES: Correcting alpha.water
MULES: Correcting alpha.water
Phase-1 volume fraction = 0.130194  Min(alpha1) = -5.72734e-06  Max(alpha1) = 1.00001
DICPCG:  Solving for p_rgh, Initial residual = 0.039008, Final residual = 0.00114504, No Iterations 1
time step continuity errors : sum local = 0.0055174, global = -7.29759e-07, cumulative = 0.000183504
DICPCG:  Solving for p_rgh, Initial residual = 0.00130865, Final residual = 5.62408e-05, No Iterations 11
time step continuity errors : sum local = 0.000263767, global = 6.23161e-05, cumulative = 0.00024582
DICPCG:  Solving for p_rgh, Initial residual = 0.000198439, Final residual = 9.02482e-08, No Iterations 50
time step continuity errors : sum local = 4.33412e-07, global = -4.02475e-08, cumulative = 0.00024578
DILUPBiCG:  Solving for T, Initial residual = 0.000119289, Final residual = 8.1306e-08, No Iterations 2
ExecutionTime = 0.28 s  ClockTime = 0 s

Courant Number mean: 0.16428 max: 1.17762
Interface Courant Number mean: 0.0147162 max: 0.950379
deltaT = 0.0046875
Time = 0.0765625

smoothSolver:  Solving for alpha.water, Initial residual = 0.00557499, Final residual = 1.88041e-09, No Iterations 4
Phase-1 volume fraction = 0.130194  Min(alpha1) = -2.62759e-08  Max(alpha1) = 1
MULES: Correcting alpha.water
MULES: Correcting alpha.water
Phase-1 volume fraction = 0.130194  Min(alpha1) = -2.62759e-08  Max(alpha1) = 1
DICPCG:  Solving for p_rgh, Initial residual = 0.0651508, Final residual = 0.000722434, No Iterations 1
time step continuity errors : sum local = 0.00289329, global = -5.08052e-07, cumulative = 0.000245272
DICPCG:  Solving for p_rgh, Initial residual = 0.000837933, Final residual = 3.69947e-05, No Iterations 11
time step continuity errors : sum local = 0.00013932, global = 2.72939e-05, cumulative = 0.000272566
DICPCG:  Solving for p_rgh, Initial residual = 0.000126777, Final residual = 8.52253e-08, No Iterations 49
time step continuity errors : sum local = 3.27367e-07, global = -1.42309e-08, cumulative = 0.000272552
DILUPBiCG:  Solving for T, Initial residual = 0.000104083, Final residual = 4.36875e-08, No Iterations 2
ExecutionTime = 0.29 s  ClockTime = 0 s

Courant Number mean: 0.144621 max: 1.15631
Interface Courant Number mean: 0.0132976 max: 0.830602
deltaT = 0.00390625
Time = 0.0804688

smoothSolver:  Solving for alpha.water, Initial residual = 0.00491957, Final residual = 6.73839e-10, No Iterations 4
Phase-1 volume fraction = 0.130194  Min(alpha1) = -2.20989e-08  Max(alpha1) = 1
MULES: Correcting alpha.water
MULES: Correcting alpha.water
Phase-1 volume fraction = 0.130194  Min(alpha1) = -6.51021e-07  Max(alpha1) = 1
DICPCG:  Solving for p_rgh, Initial residual = 0.0488352, Final residual = 0.000885251, No Iterations 1
time step continuity errors : sum local = 0.00227076, global = -2.0659e-07, cumulative = 0.000272345
DICPCG:  Solving for p_rgh, Initial residual = 0.000996788, Final residual = 4.15347e-05, No Iterations 11
time step continuity errors : sum local = 0.000101906, global = 2.03459e-05, cumulative = 0.000292691
DICPCG:  Solving for p_rgh, Initial residual = 0.000129943, Final residual = 9.67227e-08, No Iterations 36
time step continuity errors : sum local = 2.41707e-07, global = 7.59953e-08, cumulative = 0.000292767
DILUPBiCG:  Solving for T, Initial residual = 9.06306e-05, Final residual = 2.52456e-08, No Iterations 2
ExecutionTime = 0.31 s  ClockTime = 0 s

Courant Number mean: 0.12583 max: 1.10906
Interface Courant Number mean: 0.011152 max: 0.736962
deltaT = 0.00325521
Time = 0.083724

smoothSolver:  Solving for alpha.water, Initial residual = 0.0042956, Final residual = 2.35852e-10, No Iterations 4
Phase-1 volume fraction = 0.130194  Min(alpha1) = -1.89907e-08  Max(alpha1) = 1
MULES: Correcting alpha.water
MULES: Correcting alpha.water
Phase-1 volume fraction = 0.130194  Min(alpha1) = -4.91406e-07  Max(alpha1) = 1.00004
DICPCG:  Solving for p_rgh, Initial residual = 0.0378878, Final residual = 0.00101425, No Iterations 1
time step continuity errors : sum local = 0.00173529, global = -7.19267e-09, cumulative = 0.00029276
DICPCG:  Solving for p_rgh, Initial residual = 0.0011283, Final residual = 4.56693e-05, No Iterations 11
time step continuity errors : sum local = 7.56929e-05, global = 1.54488e-05, cumulative = 0.000308208
DICPCG:  Solving for p_rgh, Initial residual = 0.000133902, Final residual = 7.82803e-08, No Iterations 49
time step continuity errors : sum local = 1.31842e-07, global = -3.75914e-09, cumulative = 0.000308205
DILUPBiCG:  Solving for T, Initial residual = 7.83118e-05, Final residual = 1.87039e-08, No Iterations 2
ExecutionTime = 0.32 s  ClockTime = 0 s

Courant Number mean: 0.108663 max: 1.05934
Interface Courant Number mean: 0.00965646 max: 0.617204
deltaT = 0.00271267
Time = 0.0864366

smoothSolver:  Solving for alpha.water, Initial residual = 0.00370959, Final residual = 7.403e-09, No Iterations 3
Phase-1 volume fraction = 0.130194  Min(alpha1) = -1.66535e-08  Max(alpha1) = 1
MULES: Correcting alpha.water
MULES: Correcting alpha.water
Phase-1 volume fraction = 0.130194  Min(alpha1) = -4.64325e-07  Max(alpha1) = 1
DICPCG:  Solving for p_rgh, Initial residual = 0.0291769, Final residual = 0.000852153, No Iterations 1
time step continuity errors : sum local = 0.00101618, global = -1.24208e-07, cumulative = 0.00030808
DICPCG:  Solving for p_rgh, Initial residual = 0.000941059, Final residual = 3.8821e-05, No Iterations 11
time step continuity errors : sum local = 4.52253e-05, global = 9.85541e-06, cumulative = 0.000317936
DICPCG:  Solving for p_rgh, Initial residual = 0.000100669, Final residual = 8.25453e-08, No Iterations 48
time step continuity errors : sum local = 9.74188e-08, global = -6.12967e-09, cumulative = 0.00031793
DILUPBiCG:  Solving for T, Initial residual = 6.56137e-05, Final residual = 2.29018e-08, No Iterations 2
ExecutionTime = 0.33 s  ClockTime = 0 s

Courant Number mean: 0.0929955 max: 0.989803
Interface Courant Number mean: 0.00778789 max: 0.514351
deltaT = 0.00271267
Time = 0.0891493

smoothSolver:  Solving for alpha.water, Initial residual = 0.00379336, Final residual = 7.48554e-09, No Iterations 3
Phase-1 volume fraction = 0.130194  Min(alpha1) = -1.45665e-08  Max(alpha1) = 1
MULES: Correcting alpha.water
MULES: Correcting alpha.water
Phase-1 volume fraction = 0.130194  Min(alpha1) = -1.53806e-06  Max(alpha1) = 1
DICPCG:  Solving for p_rgh, Initial residual = 0.0294418, Final residual = 0.000880971, No Iterations 1
time step continuity errors : sum local = 0.00107055, global = -7.93736e-08, cumulative = 0.00031785
DICPCG:  Solving for p_rgh, Initial residual = 0.000977623, Final residual = 4.81039e-05, No Iterations 11
time step continuity errors : sum local = 5.71378e-05, global = 9.68189e-06, cumulative = 0.000327532
DICPCG:  Solving for p_rgh, Initial residual = 0.00011317, Final residual = 9.36622e-08, No Iterations 48
time step continuity errors : sum local = 1.12586e-07, global = -4.74112e-09, cumulative = 0.000327528
DILUPBiCG:  Solving for T, Initial residual = 7.10266e-05, Final residual = 3.91389e-09, No Iterations 2
ExecutionTime = 0.35 s  ClockTime = 0 s

Courant Number mean: 0.0953949 max: 1.09542
Interface Courant Number mean: 0.00804587 max: 0.641274
deltaT = 0.00217014
Time = 0.0913194

smoothSolver:  Solving for alpha.water, Initial residual = 0.0031353, Final residual = 2.22627e-09, No Iterations 3
Phase-1 volume fraction = 0.130194  Min(alpha1) = -1.28406e-08  Max(alpha1) = 1
MULES: Correcting alpha.water
MULES: Correcting alpha.water
Phase-1 volume fraction = 0.130194  Min(alpha1) = -1.55747e-06  Max(alpha1) = 1
DICPCG:  Solving for p_rgh, Initial residual = 0.0293626, Final residual = 0.000595217, No Iterations 1
time step continuity errors : sum local = 0.000514977, global = -5.52067e-08, cumulative = 0.000327472
DICPCG:  Solving for p_rgh, Initial residual = 0.000653337, Final residual = 2.27775e-05, No Iterations 12
time step continuity errors : sum local = 1.9233e-05, global = 4.13727e-06, cumulative = 0.00033161
DICPCG:  Solving for p_rgh, Initial residual = 6.30914e-05, Final residual = 8.18199e-08, No Iterations 47
time step continuity errors : sum local = 6.97455e-08, global = -4.45223e-09, cumulative = 0.000331605
DILUPBiCG:  Solving for T, Initial residual = 5.87979e-05, Final residual = 2.29216e-09, No Iterations 2
ExecutionTime = 0.36 s  ClockTime = 0 s

Courant Number mean: 0.0777404 max: 0.939733
Interface Courant Number mean: 0.00627748 max: 0.523763
deltaT = 0.00217014
Time = 0.0934896

smoothSolver:  Solving for alpha.water, Initial residual = 0.0032185, Final residual = 2.24079e-09, No Iterations 3
Phase-1 volume fraction = 0.130194  Min(alpha1) = -1.14726e-08  Max(alpha1) = 1
MULES: Correcting alpha.water
MULES: Correcting alpha.water
Phase-1 volume fraction = 0.130194  Min(alpha1) = -3.32552e-06  Max(alpha1) = 1
DICPCG:  Solving for p_rgh, Initial residual = 0.037523, Final residual = 0.000474137, No Iterations 1
time step continuity errors : sum local = 0.000449438, global = -2.50829e-08, cumulative = 0.00033158
DICPCG:  Solving for p_rgh, Initial residual = 0.000531816, Final residual = 2.292e-05, No Iterations 12
time step continuity errors : sum local = 2.0993e-05, global = 2.62903e-06, cumulative = 0.000334209
DICPCG:  Solving for p_rgh, Initial residual = 6.10406e-05, Final residual = 9.85173e-08, No Iterations 46
time step continuity errors : sum local = 9.09836e-08, global = -2.18469e-09, cumulative = 0.000334207
DILUPBiCG:  Solving for T, Initial residual = 6.30929e-05, Final residual = 2.29977e-09, No Iterations 2
ExecutionTime = 0.37 s  ClockTime = 0 s

Courant Number mean: 0.0793016 max: 0.996935
Interface Courant Number mean: 0.00682329 max: 0.531811
deltaT = 0.00217014
Time = 0.0956597

smoothSolver:  Solving for alpha.water, Initial residual = 0.00330448, Final residual = 2.50287e-09, No Iterations 3
Phase-1 volume fraction = 0.130194  Min(alpha1) = -1.02307e-08  Max(alpha1) = 1
MULES: Correcting alpha.water
MULES: Correcting alpha.water
Phase-1 volume fraction = 0.130194  Min(alpha1) = -4.46428e-07  Max(alpha1) = 1.00001
DICPCG:  Solving for p_rgh, Initial residual = 0.0346814, Final residual = 0.000591523, No Iterations 1
time step continuity errors : sum local = 0.000526392, global = -3.11807e-09, cumulative = 0.000334204
DICPCG:  Solving for p_rgh, Initial residual = 0.000658359, Final residual = 2.37403e-05, No Iterations 12
time step continuity errors : sum local = 2.04663e-05, global = 3.57096e-06, cumulative = 0.000337775
DICPCG:  Solving for p_rgh, Initial residual = 6.7772e-05, Final residual = 9.3908e-08, No Iterations 46
time step continuity errors : sum local = 8.16656e-08, global = -1.99804e-09, cumulative = 0.000337773
DILUPBiCG:  Solving for T, Initial residual = 6.63391e-05, Final residual = 4.67063e-09, No Iterations 2
ExecutionTime = 0.38 s  ClockTime = 0 s

Courant Number mean: 0.0809319 max: 1.0605
Interface Courant Number mean: 0.00717068 max: 0.886396
deltaT = 0.00144676
Time = 0.0971065

smoothSolver:  Solving for alpha.water, Initial residual = 0.00225808, Final residual = 2.63176e-10, No Iterations 3
Phase-1 volume fraction = 0.130194  Min(alpha1) = -9.4524e-09  Max(alpha1) = 1
MULES: Correcting alpha.water
MULES: Correcting alpha.water
Phase-1 volume fraction = 0.130194  Min(alpha1) = -2.48555e-07  Max(alpha1) = 1
DICPCG:  Solving for p_rgh, Initial residual = 0.0243663, Final residual = 0.000555575, No Iterations 1
time step continuity errors : sum local = 0.000217494, global = -1.90302e-08, cumulative = 0.000337754
DICPCG:  Solving for p_rgh, Initial residual = 0.000598048, Final residual = 2.28412e-05, No Iterations 12
time step continuity errors : sum local = 8.75661e-06, global = 1.32397e-06, cumulative = 0.000339078
DICPCG:  Solving for p_rgh, Initial residual = 5.44822e-05, Final residual = 9.05972e-08, No Iterations 44
time step continuity errors : sum local = 3.49953e-08, global = -2.58073e-09, cumulative = 0.000339075
DILUPBiCG:  Solving for T, Initial residual = 4.3965e-05, Final residual = 4.52154e-10, No Iterations 2
ExecutionTime = 0.4 s  ClockTime = 0 s

Courant Number mean: 0.0546538 max: 0.724938
Interface Courant Number mean: 0.00488648 max: 0.652903
deltaT = 0.00144676
Time = 0.0985532

smoothSolver:  Solving for alpha.water, Initial residual = 0.00229921, Final residual = 2.49611e-10, No Iterations 3
Phase-1 volume fraction = 0.130194  Min(alpha1) = -8.72574e-09  Max(alpha1) = 1
MULES: Correcting alpha.water
MULES: Correcting alpha.water
Phase-1 volume fraction = 0.130194  Min(alpha1) = -2.66382e-07  Max(alpha1) = 1
DICPCG:  Solving for p_rgh, Initial residual = 0.0227696, Final residual = 0.00058962, No Iterations 1
time step continuity errors : sum local = 0.00022353, global = -7.21963e-09, cumulative = 0.000339068
DICPCG:  Solving for p_rgh, Initial residual = 0.000634888, Final residual = 2.26596e-05, No Iterations 12
time step continuity errors : sum local = 8.43732e-06, global = 1.64493e-06, cumulative = 0.000340713
DICPCG:  Solving for p_rgh, Initial residual = 5.45871e-05, Final residual = 7.19187e-08, No Iterations 31
time step continuity errors : sum local = 2.69224e-08, global = -3.41245e-09, cumulative = 0.000340709
DILUPBiCG:  Solving for T, Initial residual = 4.58971e-05, Final residual = 1.67418e-09, No Iterations 2
ExecutionTime = 0.41 s  ClockTime = 0 s

Courant Number mean: 0.0553975 max: 0.738667
Interface Courant Number mean: 0.00460503 max: 0.645396
deltaT = 0.00144676
Time = 0.1

smoothSolver:  Solving for alpha.water, Initial residual = 0.00233748, Final residual = 2.58674e-10, No Iterations 3
Phase-1 volume fraction = 0.130194  Min(alpha1) = -8.0479e-09  Max(alpha1) = 1
MULES: Correcting alpha.water
MULES: Correcting alpha.water
Phase-1 volume fraction = 0.130194  Min(alpha1) = -2.71223e-07  Max(alpha1) = 1
DICPCG:  Solving for p_rgh, Initial residual = 0.0230811, Final residual = 0.00051378, No Iterations 1
time step continuity errors : sum local = 0.00019554, global = -1.14264e-08, cumulative = 0.000340698
DICPCG:  Solving for p_rgh, Initial residual = 0.000558551, Final residual = 1.94022e-05, No Iterations 12
time step continuity errors : sum local = 7.24828e-06, global = 1.39161e-06, cumulative = 0.00034209
DICPCG:  Solving for p_rgh, Initial residual = 5.20213e-05, Final residual = 8.61738e-08, No Iterations 44
time step continuity errors : sum local = 3.23702e-08, global = -2.13809e-09, cumulative = 0.000342087
DILUPBiCG:  Solving for T, Initial residual = 4.84744e-05, Final residual = 7.05025e-10, No Iterations 2
ExecutionTime = 0.43 s  ClockTime = 0 s

Courant Number mean: 0.0561254 max: 0.742195
Interface Courant Number mean: 0.00509244 max: 0.69405
deltaT = 0.0016129
Time = 0.101613

smoothSolver:  Solving for alpha.water, Initial residual = 0.00263349, Final residual = 5.3199e-10, No Iterations 3
Phase-1 volume fraction = 0.130194  Min(alpha1) = -7.35008e-09  Max(alpha1) = 1
MULES: Correcting alpha.water
MULES: Correcting alpha.water
Phase-1 volume fraction = 0.130194  Min(alpha1) = -3.37521e-07  Max(alpha1) = 1
DICPCG:  Solving for p_rgh, Initial residual = 0.0239564, Final residual = 0.000542921, No Iterations 1
time step continuity errors : sum local = 0.000252653, global = -7.47918e-09, cumulative = 0.00034208
DICPCG:  Solving for p_rgh, Initial residual = 0.000598169, Final residual = 1.95405e-05, No Iterations 12
time step continuity errors : sum local = 8.91174e-06, global = 1.97366e-06, cumulative = 0.000344054
DICPCG:  Solving for p_rgh, Initial residual = 5.42949e-05, Final residual = 9.12065e-08, No Iterations 39
time step continuity errors : sum local = 4.18452e-08, global = -3.65617e-09, cumulative = 0.00034405
DILUPBiCG:  Solving for T, Initial residual = 5.85078e-05, Final residual = 1.23609e-09, No Iterations 2
ExecutionTime = 0.44 s  ClockTime = 0 s

Courant Number mean: 0.0633899 max: 0.824708
Interface Courant Number mean: 0.00594032 max: 0.761972
deltaT = 0.00179211
Time = 0.103405

smoothSolver:  Solving for alpha.water, Initial residual = 0.00296012, Final residual = 1.10275e-09, No Iterations 3
Phase-1 volume fraction = 0.130194  Min(alpha1) = -6.64143e-09  Max(alpha1) = 1
MULES: Correcting alpha.water
MULES: Correcting alpha.water
Phase-1 volume fraction = 0.130194  Min(alpha1) = -4.07846e-07  Max(alpha1) = 1.00001
DICPCG:  Solving for p_rgh, Initial residual = 0.025003, Final residual = 0.000636438, No Iterations 1
time step continuity errors : sum local = 0.000358436, global = -2.28177e-08, cumulative = 0.000344027
DICPCG:  Solving for p_rgh, Initial residual = 0.00070251, Final residual = 3.44162e-05, No Iterations 11
time step continuity errors : sum local = 1.89906e-05, global = 2.4749e-06, cumulative = 0.000346502
DICPCG:  Solving for p_rgh, Initial residual = 7.53135e-05, Final residual = 9.70014e-08, No Iterations 44
time step continuity errors : sum local = 5.3885e-08, global = -3.71826e-09, cumulative = 0.000346498
DILUPBiCG:  Solving for T, Initial residual = 6.79783e-05, Final residual = 4.50021e-09, No Iterations 2
ExecutionTime = 0.46 s  ClockTime = 0 s

Courant Number mean: 0.0714151 max: 0.906738
Interface Courant Number mean: 0.00676747 max: 0.906738
deltaT = 0.00194146
Time = 0.105346

smoothSolver:  Solving for alpha.water, Initial residual = 0.00326814, Final residual = 1.98592e-09, No Iterations 3
Phase-1 volume fraction = 0.130194  Min(alpha1) = -5.94589e-09  Max(alpha1) = 1
MULES: Correcting alpha.water
MULES: Correcting alpha.water
Phase-1 volume fraction = 0.130194  Min(alpha1) = -4.27256e-07  Max(alpha1) = 1.00001
DICPCG:  Solving for p_rgh, Initial residual = 0.0282683, Final residual = 0.000669513, No Iterations 1
time step continuity errors : sum local = 0.000450089, global = -2.18978e-08, cumulative = 0.000346476
DICPCG:  Solving for p_rgh, Initial residual = 0.000750051, Final residual = 3.43976e-05, No Iterations 11
time step continuity errors : sum local = 2.25876e-05, global = 3.2417e-06, cumulative = 0.000349718
DICPCG:  Solving for p_rgh, Initial residual = 8.12288e-05, Final residual = 7.43523e-08, No Iterations 45
time step continuity errors : sum local = 4.91921e-08, global = -5.70336e-09, cumulative = 0.000349712
DILUPBiCG:  Solving for T, Initial residual = 7.67273e-05, Final residual = 1.59487e-08, No Iterations 2
ExecutionTime = 0.47 s  ClockTime = 0 s

Courant Number mean: 0.0784947 max: 0.975522
Interface Courant Number mean: 0.00723174 max: 0.975522
deltaT = 0.00194146
Time = 0.107288

smoothSolver:  Solving for alpha.water, Initial residual = 0.00334144, Final residual = 2.14747e-09, No Iterations 3
Phase-1 volume fraction = 0.130194  Min(alpha1) = -5.31554e-09  Max(alpha1) = 1
MULES: Correcting alpha.water
MULES: Correcting alpha.water
Phase-1 volume fraction = 0.130194  Min(alpha1) = -2.8874e-07  Max(alpha1) = 1.00003
DICPCG:  Solving for p_rgh, Initial residual = 0.02699, Final residual = 0.000679943, No Iterations 1
time step continuity errors : sum local = 0.000460107, global = -2.89269e-08, cumulative = 0.000349683
DICPCG:  Solving for p_rgh, Initial residual = 0.000759593, Final residual = 2.71942e-05, No Iterations 12
time step continuity errors : sum local = 1.80099e-05, global = 3.1488e-06, cumulative = 0.000352832
DICPCG:  Solving for p_rgh, Initial residual = 7.84257e-05, Final residual = 8.54006e-08, No Iterations 45
time step continuity errors : sum local = 5.70241e-08, global = -5.5282e-09, cumulative = 0.000352827
DILUPBiCG:  Solving for T, Initial residual = 7.87453e-05, Final residual = 3.20046e-11, No Iterations 3
ExecutionTime = 0.48 s  ClockTime = 1 s

Courant Number mean: 0.0796979 max: 0.970476
Interface Courant Number mean: 0.00691189 max: 0.970476
deltaT = 0.00194146
Time = 0.109229

smoothSolver:  Solving for alpha.water, Initial residual = 0.00341647, Final residual = 2.42029e-09, No Iterations 3
Phase-1 volume fraction = 0.130194  Min(alpha1) = -5.2193e-09  Max(alpha1) = 1
MULES: Correcting alpha.water
MULES: Correcting alpha.water
Phase-1 volume fraction = 0.130194  Min(alpha1) = -3.98311e-07  Max(alpha1) = 1.00001
DICPCG:  Solving for p_rgh, Initial residual = 0.0286671, Final residual = 0.000590113, No Iterations 1
time step continuity errors : sum local = 0.000423696, global = -1.71546e-08, cumulative = 0.00035281
DICPCG:  Solving for p_rgh, Initial residual = 0.000666008, Final residual = 2.27617e-05, No Iterations 12
time step continuity errors : sum local = 1.5931e-05, global = 2.6844e-06, cumulative = 0.000355494
DICPCG:  Solving for p_rgh, Initial residual = 7.22493e-05, Final residual = 9.48751e-08, No Iterations 45
time step continuity errors : sum local = 6.69281e-08, global = -5.45625e-09, cumulative = 0.000355489
DILUPBiCG:  Solving for T, Initial residual = 7.72329e-05, Final residual = 3.46116e-08, No Iterations 2
ExecutionTime = 0.5 s  ClockTime = 1 s

Courant Number mean: 0.0809472 max: 0.972478
Interface Courant Number mean: 0.0073536 max: 0.972478
deltaT = 0.00194146
Time = 0.111171

smoothSolver:  Solving for alpha.water, Initial residual = 0.00346726, Final residual = 2.69493e-09, No Iterations 3
Phase-1 volume fraction = 0.130194  Min(alpha1) = -5.10427e-09  Max(alpha1) = 1
MULES: Correcting alpha.water
MULES: Correcting alpha.water
Phase-1 volume fraction = 0.130194  Min(alpha1) = -1.16488e-06  Max(alpha1) = 1.00001
DICPCG:  Solving for p_rgh, Initial residual = 0.0337706, Final residual = 0.000574252, No Iterations 1
time step continuity errors : sum local = 0.00042987, global = -1.50708e-08, cumulative = 0.000355473
DICPCG:  Solving for p_rgh, Initial residual = 0.000659233, Final residual = 2.59054e-05, No Iterations 12
time step continuity errors : sum local = 1.87944e-05, global = 2.4937e-06, cumulative = 0.000357967
DICPCG:  Solving for p_rgh, Initial residual = 7.63586e-05, Final residual = 9.52489e-08, No Iterations 45
time step continuity errors : sum local = 6.96375e-08, global = -4.41851e-09, cumulative = 0.000357963
DILUPBiCG:  Solving for T, Initial residual = 8.15291e-05, Final residual = 1.66598e-08, No Iterations 2
ExecutionTime = 0.51 s  ClockTime = 1 s

Courant Number mean: 0.0822664 max: 0.984571
Interface Courant Number mean: 0.00737545 max: 0.984571
deltaT = 0.00194146
Time = 0.113112

smoothSolver:  Solving for alpha.water, Initial residual = 0.00349706, Final residual = 2.86884e-09, No Iterations 3
Phase-1 volume fraction = 0.130194  Min(alpha1) = -4.95077e-09  Max(alpha1) = 1
MULES: Correcting alpha.water
MULES: Correcting alpha.water
Phase-1 volume fraction = 0.130194  Min(alpha1) = -1.09994e-06  Max(alpha1) = 1.00002
DICPCG:  Solving for p_rgh, Initial residual = 0.0307689, Final residual = 0.000602943, No Iterations 1
time step continuity errors : sum local = 0.000430472, global = -1.4247e-08, cumulative = 0.000357949
DICPCG:  Solving for p_rgh, Initial residual = 0.000691612, Final residual = 2.37067e-05, No Iterations 12
time step continuity errors : sum local = 1.64739e-05, global = 3.16821e-06, cumulative = 0.000361117
DICPCG:  Solving for p_rgh, Initial residual = 7.62521e-05, Final residual = 9.01089e-08, No Iterations 41
time step continuity errors : sum local = 6.31084e-08, global = 7.31085e-09, cumulative = 0.000361124
DILUPBiCG:  Solving for T, Initial residual = 8.60215e-05, Final residual = 1.24098e-08, No Iterations 2
ExecutionTime = 0.52 s  ClockTime = 1 s

Courant Number mean: 0.0834917 max: 1.02649
Interface Courant Number mean: 0.0070001 max: 0.990878
deltaT = 0.00184438
Time = 0.114957

smoothSolver:  Solving for alpha.water, Initial residual = 0.00339249, Final residual = 2.18214e-09, No Iterations 3
Phase-1 volume fraction = 0.130194  Min(alpha1) = -4.77732e-09  Max(alpha1) = 1
MULES: Correcting alpha.water
MULES: Correcting alpha.water
Phase-1 volume fraction = 0.130194  Min(alpha1) = -8.67123e-07  Max(alpha1) = 1.00001
DICPCG:  Solving for p_rgh, Initial residual = 0.0294363, Final residual = 0.00054585, No Iterations 1
time step continuity errors : sum local = 0.000347569, global = -9.60161e-09, cumulative = 0.000361114
DICPCG:  Solving for p_rgh, Initial residual = 0.000621995, Final residual = 2.10216e-05, No Iterations 12
time step continuity errors : sum local = 1.30439e-05, global = 2.54384e-06, cumulative = 0.000363658
DICPCG:  Solving for p_rgh, Initial residual = 6.46696e-05, Final residual = 9.35044e-08, No Iterations 45
time step continuity errors : sum local = 5.84784e-08, global = -2.92165e-09, cumulative = 0.000363655
DILUPBiCG:  Solving for T, Initial residual = 8.535e-05, Final residual = 1.34063e-08, No Iterations 2
ExecutionTime = 0.53 s  ClockTime = 1 s

Courant Number mean: 0.0802455 max: 1.02478
Interface Courant Number mean: 0.00663399 max: 0.990977
deltaT = 0.00175217
Time = 0.116709

smoothSolver:  Solving for alpha.water, Initial residual = 0.00327385, Final residual = 1.71537e-09, No Iterations 3
Phase-1 volume fraction = 0.130194  Min(alpha1) = -4.59299e-09  Max(alpha1) = 1
MULES: Correcting alpha.water
MULES: Correcting alpha.water
Phase-1 volume fraction = 0.130194  Min(alpha1) = -5.25583e-07  Max(alpha1) = 1
DICPCG:  Solving for p_rgh, Initial residual = 0.0281272, Final residual = 0.000554521, No Iterations 1
time step continuity errors : sum local = 0.000315294, global = -3.47156e-08, cumulative = 0.000363621
DICPCG:  Solving for p_rgh, Initial residual = 0.00062888, Final residual = 2.13387e-05, No Iterations 12
time step continuity errors : sum local = 1.18379e-05, global = 2.03415e-06, cumulative = 0.000365655
DICPCG:  Solving for p_rgh, Initial residual = 6.36713e-05, Final residual = 6.78769e-08, No Iterations 45
time step continuity errors : sum local = 3.79443e-08, global = -3.95965e-09, cumulative = 0.000365651
DILUPBiCG:  Solving for T, Initial residual = 8.306e-05, Final residual = 5.69964e-09, No Iterations 2
ExecutionTime = 0.55 s  ClockTime = 1 s

Courant Number mean: 0.0770278 max: 1.02265
Interface Courant Number mean: 0.00665525 max: 0.983589
deltaT = 0.00166456
Time = 0.118373

smoothSolver:  Solving for alpha.water, Initial residual = 0.00314521, Final residual = 1.31806e-09, No Iterations 3
Phase-1 volume fraction = 0.130194  Min(alpha1) = -4.40442e-09  Max(alpha1) = 1
MULES: Correcting alpha.water
MULES: Correcting alpha.water
Phase-1 volume fraction = 0.130194  Min(alpha1) = -2.85682e-07  Max(alpha1) = 1
DICPCG:  Solving for p_rgh, Initial residual = 0.0242484, Final residual = 0.000591763, No Iterations 1
time step continuity errors : sum local = 0.000297107, global = -1.75044e-08, cumulative = 0.000365633
DICPCG:  Solving for p_rgh, Initial residual = 0.000663832, Final residual = 3.1787e-05, No Iterations 11
time step continuity errors : sum local = 1.56403e-05, global = 1.59177e-06, cumulative = 0.000367225
DICPCG:  Solving for p_rgh, Initial residual = 7.5742e-05, Final residual = 9.32056e-08, No Iterations 44
time step continuity errors : sum local = 4.61971e-08, global = -1.56164e-09, cumulative = 0.000367224
DILUPBiCG:  Solving for T, Initial residual = 7.87633e-05, Final residual = 3.14024e-09, No Iterations 2
ExecutionTime = 0.56 s  ClockTime = 1 s

Courant Number mean: 0.0738931 max: 1.01734
Interface Courant Number mean: 0.00620611 max: 0.969177
deltaT = 0.00158133
Time = 0.119955

smoothSolver:  Solving for alpha.water, Initial residual = 0.00301566, Final residual = 9.85679e-10, No Iterations 3
Phase-1 volume fraction = 0.130194  Min(alpha1) = -4.21627e-09  Max(alpha1) = 1
MULES: Correcting alpha.water
MULES: Correcting alpha.water
Phase-1 volume fraction = 0.130194  Min(alpha1) = -1.78634e-07  Max(alpha1) = 1.00003
DICPCG:  Solving for p_rgh, Initial residual = 0.0226706, Final residual = 0.000603397, No Iterations 1
time step continuity errors : sum local = 0.000273379, global = -7.56826e-09, cumulative = 0.000367216
DICPCG:  Solving for p_rgh, Initial residual = 0.000679094, Final residual = 2.50864e-05, No Iterations 12
time step continuity errors : sum local = 1.11579e-05, global = 1.46434e-06, cumulative = 0.00036868
DICPCG:  Solving for p_rgh, Initial residual = 6.84119e-05, Final residual = 8.72965e-08, No Iterations 44
time step continuity errors : sum local = 3.91127e-08, global = -2.43247e-09, cumulative = 0.000368678
DILUPBiCG:  Solving for T, Initial residual = 8.13686e-05, Final residual = 2.11367e-09, No Iterations 2
ExecutionTime = 0.57 s  ClockTime = 1 s

Courant Number mean: 0.0709213 max: 1.0073
Interface Courant Number mean: 0.00596803 max: 0.947447
deltaT = 0.00150226
Time = 0.121457

smoothSolver:  Solving for alpha.water, Initial residual = 0.00287852, Final residual = 7.29544e-10, No Iterations 3
Phase-1 volume fraction = 0.130194  Min(alpha1) = -4.03175e-09  Max(alpha1) = 1
MULES: Correcting alpha.water
MULES: Correcting alpha.water
Phase-1 volume fraction = 0.130194  Min(alpha1) = -1.27647e-07  Max(alpha1) = 1.00001
DICPCG:  Solving for p_rgh, Initial residual = 0.0208319, Final residual = 0.000569844, No Iterations 1
time step continuity errors : sum local = 0.000234457, global = -5.14567e-09, cumulative = 0.000368673
DICPCG:  Solving for p_rgh, Initial residual = 0.000650794, Final residual = 2.41521e-05, No Iterations 12
time step continuity errors : sum local = 9.78327e-06, global = 1.26142e-06, cumulative = 0.000369934
DICPCG:  Solving for p_rgh, Initial residual = 6.48692e-05, Final residual = 9.09951e-08, No Iterations 43
time step continuity errors : sum local = 3.71377e-08, global = -2.41398e-09, cumulative = 0.000369932
DILUPBiCG:  Solving for T, Initial residual = 8.52184e-05, Final residual = 1.55035e-09, No Iterations 2
ExecutionTime = 0.58 s  ClockTime = 1 s

Courant Number mean: 0.0680619 max: 0.992836
Interface Courant Number mean: 0.00558297 max: 0.917562
deltaT = 0.00150226
Time = 0.122959

smoothSolver:  Solving for alpha.water, Initial residual = 0.00292538, Final residual = 7.20637e-10, No Iterations 3
Phase-1 volume fraction = 0.130194  Min(alpha1) = -3.84359e-09  Max(alpha1) = 1
MULES: Correcting alpha.water
MULES: Correcting alpha.water
Phase-1 volume fraction = 0.130194  Min(alpha1) = -1.3029e-07  Max(alpha1) = 1.00002
DICPCG:  Solving for p_rgh, Initial residual = 0.0219631, Final residual = 0.000615055, No Iterations 1
time step continuity errors : sum local = 0.000259075, global = -5.69572e-09, cumulative = 0.000369926
DICPCG:  Solving for p_rgh, Initial residual = 0.000708402, Final residual = 3.53675e-05, No Iterations 8
time step continuity errors : sum local = 1.46551e-05, global = 1.39864e-07, cumulative = 0.000370066
DICPCG:  Solving for p_rgh, Initial residual = 7.95534e-05, Final residual = 8.57818e-08, No Iterations 45
time step continuity errors : sum local = 3.57356e-08, global = -2.60183e-09, cumulative = 0.000370063
DILUPBiCG:  Solving for T, Initial residual = 9.28204e-05, Final residual = 1.57273e-09, No Iterations 2
ExecutionTime = 0.6 s  ClockTime = 1 s

Courant Number mean: 0.0686847 max: 1.02904
Interface Courant Number mean: 0.00539842 max: 0.927416
deltaT = 0.0014232
Time = 0.124382

smoothSolver:  Solving for alpha.water, Initial residual = 0.00280351, Final residual = 5.34168e-10, No Iterations 3
Phase-1 volume fraction = 0.130194  Min(alpha1) = -3.6635e-09  Max(alpha1) = 1
MULES: Correcting alpha.water
MULES: Correcting alpha.water
Phase-1 volume fraction = 0.130194  Min(alpha1) = -1.06261e-07  Max(alpha1) = 1.00001
DICPCG:  Solving for p_rgh, Initial residual = 0.0210095, Final residual = 0.000559478, No Iterations 1
time step continuity errors : sum local = 0.000217162, global = -8.2005e-09, cumulative = 0.000370055
DICPCG:  Solving for p_rgh, Initial residual = 0.00064939, Final residual = 3.21468e-05, No Iterations 8
time step continuity errors : sum local = 1.23025e-05, global = 7.41596e-08, cumulative = 0.000370129
DICPCG:  Solving for p_rgh, Initial residual = 7.4606e-05, Final residual = 9.33688e-08, No Iterations 45
time step continuity errors : sum local = 3.59211e-08, global = -3.38206e-09, cumulative = 0.000370126
DILUPBiCG:  Solving for T, Initial residual = 9.0202e-05, Final residual = 1.14806e-09, No Iterations 2
ExecutionTime = 0.61 s  ClockTime = 1 s

Courant Number mean: 0.0656531 max: 1.00338
Interface Courant Number mean: 0.0050703 max: 0.876901
deltaT = 0.00134829
Time = 0.125731

smoothSolver:  Solving for alpha.water, Initial residual = 0.00269401, Final residual = 3.94466e-10, No Iterations 3
Phase-1 volume fraction = 0.130194  Min(alpha1) = -3.49247e-09  Max(alpha1) = 1
MULES: Correcting alpha.water
MULES: Correcting alpha.water
Phase-1 volume fraction = 0.130194  Min(alpha1) = -8.46673e-08  Max(alpha1) = 1
DICPCG:  Solving for p_rgh, Initial residual = 0.0208383, Final residual = 0.000438186, No Iterations 1
time step continuity errors : sum local = 0.000161449, global = -5.60611e-09, cumulative = 0.00037012
DICPCG:  Solving for p_rgh, Initial residual = 0.000506958, Final residual = 2.48807e-05, No Iterations 8
time step continuity errors : sum local = 9.01779e-06, global = 4.5041e-08, cumulative = 0.000370165
DICPCG:  Solving for p_rgh, Initial residual = 5.96816e-05, Final residual = 9.12191e-08, No Iterations 45
time step continuity errors : sum local = 3.32351e-08, global = -1.29335e-09, cumulative = 0.000370164
DILUPBiCG:  Solving for T, Initial residual = 9.04007e-05, Final residual = 9.17786e-10, No Iterations 2
ExecutionTime = 0.62 s  ClockTime = 1 s

Courant Number mean: 0.0626552 max: 0.973144
Interface Courant Number mean: 0.00486604 max: 0.922274
deltaT = 0.00134829
Time = 0.127079

smoothSolver:  Solving for alpha.water, Initial residual = 0.00272849, Final residual = 4.00496e-10, No Iterations 3
Phase-1 volume fraction = 0.130194  Min(alpha1) = -3.32232e-09  Max(alpha1) = 1
MULES: Correcting alpha.water
MULES: Correcting alpha.water
Phase-1 volume fraction = 0.130194  Min(alpha1) = -7.46454e-08  Max(alpha1) = 1
DICPCG:  Solving for p_rgh, Initial residual = 0.0240427, Final residual = 0.000411878, No Iterations 1
time step continuity errors : sum local = 0.000158246, global = -4.8711e-09, cumulative = 0.000370159
DICPCG:  Solving for p_rgh, Initial residual = 0.000477783, Final residual = 2.36131e-05, No Iterations 8
time step continuity errors : sum local = 8.89638e-06, global = 2.5276e-08, cumulative = 0.000370184
DICPCG:  Solving for p_rgh, Initial residual = 6.78689e-05, Final residual = 8.09236e-08, No Iterations 45
time step continuity errors : sum local = 3.06717e-08, global = 1.21981e-09, cumulative = 0.000370186
DILUPBiCG:  Solving for T, Initial residual = 9.68288e-05, Final residual = 1.02768e-09, No Iterations 2
ExecutionTime = 0.63 s  ClockTime = 1 s

Courant Number mean: 0.0630959 max: 0.987161
Interface Courant Number mean: 0.00505481 max: 0.91197
deltaT = 0.00134829
Time = 0.128427

smoothSolver:  Solving for alpha.water, Initial residual = 0.00275734, Final residual = 4.08896e-10, No Iterations 3
Phase-1 volume fraction = 0.130194  Min(alpha1) = -3.15404e-09  Max(alpha1) = 1
MULES: Correcting alpha.water
MULES: Correcting alpha.water
Phase-1 volume fraction = 0.130194  Min(alpha1) = -6.74857e-08  Max(alpha1) = 1
DICPCG:  Solving for p_rgh, Initial residual = 0.0224424, Final residual = 0.000458337, No Iterations 1
time step continuity errors : sum local = 0.000171233, global = 1.0124e-09, cumulative = 0.000370187
DICPCG:  Solving for p_rgh, Initial residual = 0.0005392, Final residual = 2.59692e-05, No Iterations 8
time step continuity errors : sum local = 9.53715e-06, global = 2.812e-08, cumulative = 0.000370215
DICPCG:  Solving for p_rgh, Initial residual = 7.6222e-05, Final residual = 9.1152e-08, No Iterations 45
time step continuity errors : sum local = 3.37222e-08, global = 1.66809e-09, cumulative = 0.000370216
DILUPBiCG:  Solving for T, Initial residual = 9.7273e-05, Final residual = 1.06725e-09, No Iterations 2
ExecutionTime = 0.65 s  ClockTime = 1 s

Courant Number mean: 0.0635486 max: 0.98858
Interface Courant Number mean: 0.00524014 max: 0.880705
deltaT = 0.00134829
Time = 0.129776

smoothSolver:  Solving for alpha.water, Initial residual = 0.00278219, Final residual = 4.10586e-10, No Iterations 3
Phase-1 volume fraction = 0.130194  Min(alpha1) = -2.98842e-09  Max(alpha1) = 1
MULES: Correcting alpha.water
MULES: Correcting alpha.water
Phase-1 volume fraction = 0.130194  Min(alpha1) = -4.95544e-08  Max(alpha1) = 1.00005
DICPCG:  Solving for p_rgh, Initial residual = 0.0223869, Final residual = 0.000502574, No Iterations 1
time step continuity errors : sum local = 0.000185035, global = -1.10826e-10, cumulative = 0.000370216
DICPCG:  Solving for p_rgh, Initial residual = 0.000621967, Final residual = 2.62708e-05, No Iterations 13
time step continuity errors : sum local = 9.49985e-06, global = 7.11515e-07, cumulative = 0.000370928
DICPCG:  Solving for p_rgh, Initial residual = 0.000106501, Final residual = 9.34045e-08, No Iterations 49
time step continuity errors : sum local = 3.40842e-08, global = 1.1113e-10, cumulative = 0.000370928
DILUPBiCG:  Solving for T, Initial residual = 0.000105048, Final residual = 1.19116e-09, No Iterations 2
ExecutionTime = 0.67 s  ClockTime = 1 s

Courant Number mean: 0.0640534 max: 0.945133
Interface Courant Number mean: 0.00536439 max: 0.945133
deltaT = 0.00134829
Time = 0.131124

smoothSolver:  Solving for alpha.water, Initial residual = 0.00281791, Final residual = 4.07614e-10, No Iterations 3
Phase-1 volume fraction = 0.130194  Min(alpha1) = -2.92144e-09  Max(alpha1) = 1
MULES: Correcting alpha.water
MULES: Correcting alpha.water
Phase-1 volume fraction = 0.130194  Min(alpha1) = -1.47829e-07  Max(alpha1) = 1.00001
DICPCG:  Solving for p_rgh, Initial residual = 0.0203886, Final residual = 0.000528335, No Iterations 1
time step continuity errors : sum local = 0.000189679, global = -6.44155e-09, cumulative = 0.000370922
DICPCG:  Solving for p_rgh, Initial residual = 0.000648697, Final residual = 3.18201e-05, No Iterations 9
time step continuity errors : sum local = 1.12416e-05, global = 9.0645e-08, cumulative = 0.000371012
DICPCG:  Solving for p_rgh, Initial residual = 0.000100978, Final residual = 8.02801e-08, No Iterations 49
time step continuity errors : sum local = 2.85545e-08, global = 1.01785e-10, cumulative = 0.000371012
DILUPBiCG:  Solving for T, Initial residual = 0.000109329, Final residual = 1.24249e-09, No Iterations 2
ExecutionTime = 0.68 s  ClockTime = 1 s

Courant Number mean: 0.0645963 max: 0.895471
Interface Courant Number mean: 0.00554938 max: 0.895471
deltaT = 0.00145201
Time = 0.132576

smoothSolver:  Solving for alpha.water, Initial residual = 0.0030647, Final residual = 6.28362e-10, No Iterations 3
Phase-1 volume fraction = 0.130194  Min(alpha1) = -2.89503e-09  Max(alpha1) = 1
MULES: Correcting alpha.water
MULES: Correcting alpha.water
Phase-1 volume fraction = 0.130194  Min(alpha1) = -1.8148e-07  Max(alpha1) = 1.00001
DICPCG:  Solving for p_rgh, Initial residual = 0.0215808, Final residual = 0.000582377, No Iterations 1
time step continuity errors : sum local = 0.000239972, global = 1.96243e-09, cumulative = 0.000371014
DICPCG:  Solving for p_rgh, Initial residual = 0.000730674, Final residual = 3.49391e-05, No Iterations 13
time step continuity errors : sum local = 1.41692e-05, global = 7.06422e-07, cumulative = 0.000371721
DICPCG:  Solving for p_rgh, Initial residual = 0.000120103, Final residual = 6.80339e-08, No Iterations 44
time step continuity errors : sum local = 2.78971e-08, global = 3.55066e-09, cumulative = 0.000371724
DILUPBiCG:  Solving for T, Initial residual = 0.000126048, Final residual = 1.74972e-09, No Iterations 2
ExecutionTime = 0.69 s  ClockTime = 1 s

Courant Number mean: 0.0702441 max: 0.893675
Interface Courant Number mean: 0.00629058 max: 0.893675
deltaT = 0.00158401
Time = 0.13416

smoothSolver:  Solving for alpha.water, Initial residual = 0.00338118, Final residual = 1.04123e-09, No Iterations 3
Phase-1 volume fraction = 0.130194  Min(alpha1) = -2.85034e-09  Max(alpha1) = 1
MULES: Correcting alpha.water
MULES: Correcting alpha.water
Phase-1 volume fraction = 0.130194  Min(alpha1) = -1.83531e-07  Max(alpha1) = 1.00004
DICPCG:  Solving for p_rgh, Initial residual = 0.0207856, Final residual = 0.00065711, No Iterations 1
time step continuity errors : sum local = 0.000317565, global = 7.12824e-09, cumulative = 0.000371731
DICPCG:  Solving for p_rgh, Initial residual = 0.000772764, Final residual = 3.6839e-05, No Iterations 13
time step continuity errors : sum local = 1.7555e-05, global = 1.27116e-06, cumulative = 0.000373002
DICPCG:  Solving for p_rgh, Initial residual = 0.000127054, Final residual = 8.39715e-08, No Iterations 49
time step continuity errors : sum local = 4.06104e-08, global = -8.80998e-10, cumulative = 0.000373002
DILUPBiCG:  Solving for T, Initial residual = 0.000139813, Final residual = 2.41159e-09, No Iterations 2
ExecutionTime = 0.7 s  ClockTime = 1 s

Courant Number mean: 0.0773602 max: 0.912929
Interface Courant Number mean: 0.00668616 max: 0.912929
deltaT = 0.00158401
Time = 0.135744

smoothSolver:  Solving for alpha.water, Initial residual = 0.00340363, Final residual = 1.05001e-09, No Iterations 3
Phase-1 volume fraction = 0.130194  Min(alpha1) = -2.79186e-09  Max(alpha1) = 1
MULES: Correcting alpha.water
MULES: Correcting alpha.water
Phase-1 volume fraction = 0.130194  Min(alpha1) = -1.02283e-07  Max(alpha1) = 1.00002
DICPCG:  Solving for p_rgh, Initial residual = 0.0200419, Final residual = 0.000613197, No Iterations 1
time step continuity errors : sum local = 0.000298338, global = -1.53316e-08, cumulative = 0.000372986
DICPCG:  Solving for p_rgh, Initial residual = 0.00073431, Final residual = 3.23563e-05, No Iterations 13
time step continuity errors : sum local = 1.5519e-05, global = 1.22017e-06, cumulative = 0.000374206
DICPCG:  Solving for p_rgh, Initial residual = 0.000116175, Final residual = 9.18976e-08, No Iterations 44
time step continuity errors : sum local = 4.46437e-08, global = 5.39137e-09, cumulative = 0.000374212
DILUPBiCG:  Solving for T, Initial residual = 0.000136175, Final residual = 2.27392e-09, No Iterations 2
ExecutionTime = 0.73 s  ClockTime = 1 s

Courant Number mean: 0.0779926 max: 0.87753
Interface Courant Number mean: 0.0065551 max: 0.87753
deltaT = 0.00158401
Time = 0.137328

smoothSolver:  Solving for alpha.water, Initial residual = 0.00342524, Final residual = 1.05735e-09, No Iterations 3
Phase-1 volume fraction = 0.130194  Min(alpha1) = -2.72167e-09  Max(alpha1) = 1
MULES: Correcting alpha.water
MULES: Correcting alpha.water
Phase-1 volume fraction = 0.130194  Min(alpha1) = -1.09975e-06  Max(alpha1) = 1.00001
DICPCG:  Solving for p_rgh, Initial residual = 0.0206543, Final residual = 0.000605814, No Iterations 1
time step continuity errors : sum local = 0.000299703, global = 5.88997e-09, cumulative = 0.000374218
DICPCG:  Solving for p_rgh, Initial residual = 0.000711174, Final residual = 3.40379e-05, No Iterations 13
time step continuity errors : sum local = 1.66101e-05, global = 1.41727e-06, cumulative = 0.000375635
DICPCG:  Solving for p_rgh, Initial residual = 0.00010775, Final residual = 9.35013e-08, No Iterations 44
time step continuity errors : sum local = 4.62815e-08, global = -9.2634e-10, cumulative = 0.000375634
DILUPBiCG:  Solving for T, Initial residual = 0.000131338, Final residual = 2.86649e-09, No Iterations 2
ExecutionTime = 0.74 s  ClockTime = 1 s

Courant Number mean: 0.0785709 max: 0.85366
Interface Courant Number mean: 0.00698211 max: 0.85366
deltaT = 0.00158401
Time = 0.138912

smoothSolver:  Solving for alpha.water, Initial residual = 0.00348604, Final residual = 1.0761e-09, No Iterations 3
Phase-1 volume fraction = 0.130194  Min(alpha1) = -2.64172e-09  Max(alpha1) = 1
MULES: Correcting alpha.water
MULES: Correcting alpha.water
Phase-1 volume fraction = 0.130194  Min(alpha1) = -5.18459e-07  Max(alpha1) = 1.00001
DICPCG:  Solving for p_rgh, Initial residual = 0.0211513, Final residual = 0.000585723, No Iterations 1
time step continuity errors : sum local = 0.000296694, global = -1.64059e-08, cumulative = 0.000375618
DICPCG:  Solving for p_rgh, Initial residual = 0.000680264, Final residual = 3.29416e-05, No Iterations 13
time step continuity errors : sum local = 1.64503e-05, global = 1.20545e-06, cumulative = 0.000376823
DICPCG:  Solving for p_rgh, Initial residual = 0.000107257, Final residual = 9.98366e-08, No Iterations 47
time step continuity errors : sum local = 5.06053e-08, global = -3.93852e-09, cumulative = 0.000376819
DILUPBiCG:  Solving for T, Initial residual = 0.000141902, Final residual = 4.20984e-09, No Iterations 2
ExecutionTime = 0.75 s  ClockTime = 1 s

Courant Number mean: 0.0790761 max: 0.868446
Interface Courant Number mean: 0.00716485 max: 0.868446
deltaT = 0.00158401
Time = 0.140496

smoothSolver:  Solving for alpha.water, Initial residual = 0.00352637, Final residual = 1.09132e-09, No Iterations 3
Phase-1 volume fraction = 0.130194  Min(alpha1) = -2.55389e-09  Max(alpha1) = 1
MULES: Correcting alpha.water
MULES: Correcting alpha.water
Phase-1 volume fraction = 0.130194  Min(alpha1) = -4.21721e-06  Max(alpha1) = 1
DICPCG:  Solving for p_rgh, Initial residual = 0.0201111, Final residual = 0.000594971, No Iterations 1
time step continuity errors : sum local = 0.000306634, global = -9.80075e-09, cumulative = 0.000376809
DICPCG:  Solving for p_rgh, Initial residual = 0.000677382, Final residual = 3.15281e-05, No Iterations 13
time step continuity errors : sum local = 1.60343e-05, global = 1.21592e-06, cumulative = 0.000378025
DICPCG:  Solving for p_rgh, Initial residual = 0.000102134, Final residual = 8.38653e-08, No Iterations 48
time step continuity errors : sum local = 4.31815e-08, global = -1.99994e-09, cumulative = 0.000378023
DILUPBiCG:  Solving for T, Initial residual = 0.000141746, Final residual = 6.82997e-09, No Iterations 2
ExecutionTime = 0.77 s  ClockTime = 1 s

Courant Number mean: 0.0795763 max: 0.873616
Interface Courant Number mean: 0.00761887 max: 0.873616
deltaT = 0.00158401
Time = 0.14208

smoothSolver:  Solving for alpha.water, Initial residual = 0.00362015, Final residual = 1.10263e-09, No Iterations 3
Phase-1 volume fraction = 0.130194  Min(alpha1) = -2.45968e-09  Max(alpha1) = 1
MULES: Correcting alpha.water
MULES: Correcting alpha.water
Phase-1 volume fraction = 0.130194  Min(alpha1) = -2.42624e-06  Max(alpha1) = 1.00001
DICPCG:  Solving for p_rgh, Initial residual = 0.0211519, Final residual = 0.000514547, No Iterations 1
time step continuity errors : sum local = 0.00027737, global = -1.34048e-09, cumulative = 0.000378022
DICPCG:  Solving for p_rgh, Initial residual = 0.000598105, Final residual = 2.35459e-05, No Iterations 14
time step continuity errors : sum local = 1.24999e-05, global = 9.38378e-07, cumulative = 0.00037896
DICPCG:  Solving for p_rgh, Initial residual = 9.62734e-05, Final residual = 8.34844e-08, No Iterations 35
time step continuity errors : sum local = 4.50351e-08, global = 1.99163e-08, cumulative = 0.00037898
DILUPBiCG:  Solving for T, Initial residual = 0.000147961, Final residual = 7.50877e-09, No Iterations 2
ExecutionTime = 0.78 s  ClockTime = 1 s

Courant Number mean: 0.0800099 max: 0.867595
Interface Courant Number mean: 0.00772411 max: 0.867595
deltaT = 0.00158401
Time = 0.143664

smoothSolver:  Solving for alpha.water, Initial residual = 0.00367378, Final residual = 1.10269e-09, No Iterations 3
Phase-1 volume fraction = 0.130194  Min(alpha1) = -2.36059e-09  Max(alpha1) = 1
MULES: Correcting alpha.water
MULES: Correcting alpha.water
Phase-1 volume fraction = 0.130194  Min(alpha1) = -3.95259e-07  Max(alpha1) = 1.00001
DICPCG:  Solving for p_rgh, Initial residual = 0.0226112, Final residual = 0.000474534, No Iterations 1
time step continuity errors : sum local = 0.00026575, global = 4.25887e-08, cumulative = 0.000379023
DICPCG:  Solving for p_rgh, Initial residual = 0.000564711, Final residual = 1.80418e-05, No Iterations 14
time step continuity errors : sum local = 9.92116e-06, global = 7.59185e-07, cumulative = 0.000379782
DICPCG:  Solving for p_rgh, Initial residual = 8.62194e-05, Final residual = 9.84657e-08, No Iterations 33
time step continuity errors : sum local = 5.48316e-08, global = -2.75397e-10, cumulative = 0.000379782
DILUPBiCG:  Solving for T, Initial residual = 0.000154561, Final residual = 9.85087e-09, No Iterations 2
ExecutionTime = 0.79 s  ClockTime = 1 s

Courant Number mean: 0.0804425 max: 0.870413
Interface Courant Number mean: 0.00842421 max: 0.870413
deltaT = 0.00158401
Time = 0.145248

smoothSolver:  Solving for alpha.water, Initial residual = 0.00371466, Final residual = 1.09686e-09, No Iterations 3
Phase-1 volume fraction = 0.130194  Min(alpha1) = -2.25788e-09  Max(alpha1) = 1
MULES: Correcting alpha.water
MULES: Correcting alpha.water
Phase-1 volume fraction = 0.130194  Min(alpha1) = -9.92328e-08  Max(alpha1) = 1.00001
DICPCG:  Solving for p_rgh, Initial residual = 0.0204372, Final residual = 0.000501566, No Iterations 1
time step continuity errors : sum local = 0.000276659, global = -1.50438e-08, cumulative = 0.000379767
DICPCG:  Solving for p_rgh, Initial residual = 0.000587093, Final residual = 1.93402e-05, No Iterations 14
time step continuity errors : sum local = 1.05012e-05, global = 8.14837e-07, cumulative = 0.000380582
DICPCG:  Solving for p_rgh, Initial residual = 8.98879e-05, Final residual = 9.98808e-08, No Iterations 45
time step continuity errors : sum local = 5.48116e-08, global = -1.08357e-09, cumulative = 0.00038058
DILUPBiCG:  Solving for T, Initial residual = 0.000164068, Final residual = 1.53859e-08, No Iterations 2
ExecutionTime = 0.8 s  ClockTime = 1 s

Courant Number mean: 0.0808379 max: 0.85766
Interface Courant Number mean: 0.00815191 max: 0.85766
deltaT = 0.00158401
Time = 0.146832

smoothSolver:  Solving for alpha.water, Initial residual = 0.00374219, Final residual = 1.11379e-09, No Iterations 3
Phase-1 volume fraction = 0.130194  Min(alpha1) = -2.15267e-09  Max(alpha1) = 1
MULES: Correcting alpha.water
MULES: Correcting alpha.water
Phase-1 volume fraction = 0.130194  Min(alpha1) = -5.90243e-08  Max(alpha1) = 1.00002
DICPCG:  Solving for p_rgh, Initial residual = 0.020445, Final residual = 0.00051221, No Iterations 1
time step continuity errors : sum local = 0.000281726, global = -8.57465e-11, cumulative = 0.00038058
DICPCG:  Solving for p_rgh, Initial residual = 0.000602384, Final residual = 1.97241e-05, No Iterations 14
time step continuity errors : sum local = 1.06828e-05, global = 1.35219e-06, cumulative = 0.000381933
DICPCG:  Solving for p_rgh, Initial residual = 8.93317e-05, Final residual = 9.51204e-08, No Iterations 48
time step continuity errors : sum local = 5.2198e-08, global = -6.49424e-10, cumulative = 0.000381932
DILUPBiCG:  Solving for T, Initial residual = 0.000163677, Final residual = 1.13364e-08, No Iterations 2
ExecutionTime = 0.82 s  ClockTime = 1 s

Courant Number mean: 0.0811428 max: 0.842883
Interface Courant Number mean: 0.0081888 max: 0.842883
deltaT = 0.00158401
Time = 0.148416

smoothSolver:  Solving for alpha.water, Initial residual = 0.00379955, Final residual = 1.1266e-09, No Iterations 3
Phase-1 volume fraction = 0.130194  Min(alpha1) = -2.04621e-09  Max(alpha1) = 1
MULES: Correcting alpha.water
MULES: Correcting alpha.water
Phase-1 volume fraction = 0.130194  Min(alpha1) = -7.52393e-08  Max(alpha1) = 1.00012
DICPCG:  Solving for p_rgh, Initial residual = 0.0190742, Final residual = 0.000520644, No Iterations 1
time step continuity errors : sum local = 0.000284885, global = -5.98003e-09, cumulative = 0.000381926
DICPCG:  Solving for p_rgh, Initial residual = 0.000622835, Final residual = 2.83913e-05, No Iterations 10
time step continuity errors : sum local = 1.53123e-05, global = 1.76075e-07, cumulative = 0.000382102
DICPCG:  Solving for p_rgh, Initial residual = 9.44341e-05, Final residual = 7.52021e-08, No Iterations 48
time step continuity errors : sum local = 4.09836e-08, global = -8.60918e-10, cumulative = 0.000382101
DILUPBiCG:  Solving for T, Initial residual = 0.000163732, Final residual = 1.51697e-08, No Iterations 2
ExecutionTime = 0.83 s  ClockTime = 1 s

Courant Number mean: 0.0814061 max: 0.836498
Interface Courant Number mean: 0.0083418 max: 0.836498
deltaT = 0.00158401
Time = 0.15

smoothSolver:  Solving for alpha.water, Initial residual = 0.00384268, Final residual = 1.13722e-09, No Iterations 3
Phase-1 volume fraction = 0.130194  Min(alpha1) = -2.02158e-09  Max(alpha1) = 1
MULES: Correcting alpha.water
MULES: Correcting alpha.water
Phase-1 volume fraction = 0.130194  Min(alpha1) = -4.99549e-08  Max(alpha1) = 1.00007
DICPCG:  Solving for p_rgh, Initial residual = 0.0177062, Final residual = 0.000544084, No Iterations 1
time step continuity errors : sum local = 0.000297485, global = 4.57395e-09, cumulative = 0.000382106
DICPCG:  Solving for p_rgh, Initial residual = 0.000636583, Final residual = 3.11876e-05, No Iterations 9
time step continuity errors : sum local = 1.68361e-05, global = 6.5196e-08, cumulative = 0.000382171
DICPCG:  Solving for p_rgh, Initial residual = 9.76771e-05, Final residual = 7.68255e-08, No Iterations 44
time step continuity errors : sum local = 4.17985e-08, global = 3.14436e-09, cumulative = 0.000382174
DILUPBiCG:  Solving for T, Initial residual = 0.000171026, Final residual = 1.41383e-08, No Iterations 2
ExecutionTime = 0.86 s  ClockTime = 1 s

Courant Number mean: 0.0816165 max: 0.827678
Interface Courant Number mean: 0.00881573 max: 0.827678
deltaT = 0.00172414
Time = 0.151724

smoothSolver:  Solving for alpha.water, Initial residual = 0.00428146, Final residual = 1.93634e-09, No Iterations 3
Phase-1 volume fraction = 0.130194  Min(alpha1) = -1.99495e-09  Max(alpha1) = 1
MULES: Correcting alpha.water
MULES: Correcting alpha.water
Phase-1 volume fraction = 0.130194  Min(alpha1) = -5.54545e-08  Max(alpha1) = 1.00006
DICPCG:  Solving for p_rgh, Initial residual = 0.0192026, Final residual = 0.000592482, No Iterations 1
time step continuity errors : sum local = 0.000385111, global = 1.73388e-08, cumulative = 0.000382191
DICPCG:  Solving for p_rgh, Initial residual = 0.000688348, Final residual = 3.02456e-05, No Iterations 9
time step continuity errors : sum local = 1.93808e-05, global = 6.85042e-08, cumulative = 0.00038226
DICPCG:  Solving for p_rgh, Initial residual = 0.000113637, Final residual = 8.31759e-08, No Iterations 47
time step continuity errors : sum local = 5.36669e-08, global = -3.51948e-09, cumulative = 0.000382256
DILUPBiCG:  Solving for T, Initial residual = 0.000191491, Final residual = 2.04395e-08, No Iterations 2
ExecutionTime = 0.88 s  ClockTime = 1 s

Courant Number mean: 0.0890675 max: 0.901099
Interface Courant Number mean: 0.0095835 max: 0.901099
deltaT = 0.00185676
Time = 0.153581

smoothSolver:  Solving for alpha.water, Initial residual = 0.0046727, Final residual = 3.05666e-09, No Iterations 3
Phase-1 volume fraction = 0.130194  Min(alpha1) = -1.9543e-09  Max(alpha1) = 1
MULES: Correcting alpha.water
MULES: Correcting alpha.water
Phase-1 volume fraction = 0.130194  Min(alpha1) = -6.08297e-08  Max(alpha1) = 1
DICPCG:  Solving for p_rgh, Initial residual = 0.0181073, Final residual = 0.000639675, No Iterations 1
time step continuity errors : sum local = 0.000477874, global = -3.14701e-09, cumulative = 0.000382253
DICPCG:  Solving for p_rgh, Initial residual = 0.000745359, Final residual = 3.03899e-05, No Iterations 8
time step continuity errors : sum local = 2.24196e-05, global = -8.42654e-09, cumulative = 0.000382245
DICPCG:  Solving for p_rgh, Initial residual = 0.000125683, Final residual = 8.05461e-08, No Iterations 48
time step continuity errors : sum local = 5.96891e-08, global = -1.78466e-09, cumulative = 0.000382243
DILUPBiCG:  Solving for T, Initial residual = 0.000210077, Final residual = 1.47465e-08, No Iterations 2
ExecutionTime = 0.89 s  ClockTime = 1 s

[...]
DILUPBiCG:  Solving for T, Initial residual = 0.000744803, Final residual = 4.26026e-08, No Iterations 2
ExecutionTime = 7.4 s  ClockTime = 7 s

Courant Number mean: 0.162212 max: 0.895655
Interface Courant Number mean: 0.0337262 max: 0.602462
deltaT = 0.0026455
Time = 0.955026

smoothSolver:  Solving for alpha.water, Initial residual = 0.00756535, Final residual = 6.08423e-09, No Iterations 3
Phase-1 volume fraction = 0.127481  Min(alpha1) = -1.04633e-13  Max(alpha1) = 1
MULES: Correcting alpha.water
MULES: Correcting alpha.water
Phase-1 volume fraction = 0.127481  Min(alpha1) = -0.000142463  Max(alpha1) = 1
DICPCG:  Solving for p_rgh, Initial residual = 0.0303332, Final residual = 0.000570299, No Iterations 2
time step continuity errors : sum local = 0.000576055, global = 6.93456e-08, cumulative = 0.00322859
DICPCG:  Solving for p_rgh, Initial residual = 0.000789034, Final residual = 3.05963e-05, No Iterations 9
time step continuity errors : sum local = 3.04024e-05, global = -8.30613e-07, cumulative = 0.00322776
DICPCG:  Solving for p_rgh, Initial residual = 0.000149256, Final residual = 9.41191e-08, No Iterations 52
time step continuity errors : sum local = 9.38055e-08, global = -3.27119e-09, cumulative = 0.00322776
DILUPBiCG:  Solving for T, Initial residual = 0.000885759, Final residual = 4.97294e-08, No Iterations 2
ExecutionTime = 7.41 s  ClockTime = 7 s

Courant Number mean: 0.180558 max: 0.963712
Interface Courant Number mean: 0.0375628 max: 0.676374
deltaT = 0.0026455
Time = 0.957672

smoothSolver:  Solving for alpha.water, Initial residual = 0.00756193, Final residual = 6.31247e-09, No Iterations 3
Phase-1 volume fraction = 0.127481  Min(alpha1) = -1.00338e-13  Max(alpha1) = 1
MULES: Correcting alpha.water
MULES: Correcting alpha.water
Phase-1 volume fraction = 0.127481  Min(alpha1) = -0.000187406  Max(alpha1) = 1
DICPCG:  Solving for p_rgh, Initial residual = 0.0296259, Final residual = 0.000589972, No Iterations 2
time step continuity errors : sum local = 0.000584076, global = 6.02572e-08, cumulative = 0.00322782
DICPCG:  Solving for p_rgh, Initial residual = 0.000772604, Final residual = 3.57707e-05, No Iterations 25
time step continuity errors : sum local = 3.49275e-05, global = -4.72944e-06, cumulative = 0.00322309
DICPCG:  Solving for p_rgh, Initial residual = 0.000146948, Final residual = 8.88136e-08, No Iterations 51
time step continuity errors : sum local = 8.7124e-08, global = 4.06073e-09, cumulative = 0.00322309
DILUPBiCG:  Solving for T, Initial residual = 0.000923915, Final residual = 6.95465e-08, No Iterations 2
ExecutionTime = 7.42 s  ClockTime = 7 s

Courant Number mean: 0.180893 max: 0.939797
Interface Courant Number mean: 0.0370474 max: 0.641135
deltaT = 0.0026455
Time = 0.960317

smoothSolver:  Solving for alpha.water, Initial residual = 0.00751276, Final residual = 6.6438e-09, No Iterations 3
Phase-1 volume fraction = 0.127481  Min(alpha1) = -9.62228e-14  Max(alpha1) = 1
MULES: Correcting alpha.water
MULES: Correcting alpha.water
Phase-1 volume fraction = 0.127481  Min(alpha1) = -0.000206104  Max(alpha1) = 1
DICPCG:  Solving for p_rgh, Initial residual = 0.0326091, Final residual = 0.000582053, No Iterations 2
time step continuity errors : sum local = 0.000585378, global = 2.21837e-07, cumulative = 0.00322331
DICPCG:  Solving for p_rgh, Initial residual = 0.000759951, Final residual = 3.3272e-05, No Iterations 26
time step continuity errors : sum local = 3.28564e-05, global = -6.88027e-06, cumulative = 0.00321643
DICPCG:  Solving for p_rgh, Initial residual = 0.000143267, Final residual = 6.71257e-08, No Iterations 53
time step continuity errors : sum local = 6.65138e-08, global = 1.67783e-09, cumulative = 0.00321644
DILUPBiCG:  Solving for T, Initial residual = 0.00093673, Final residual = 5.04649e-09, No Iterations 3
ExecutionTime = 7.44 s  ClockTime = 7 s

Courant Number mean: 0.18123 max: 0.918764
Interface Courant Number mean: 0.0368728 max: 0.643013
deltaT = 0.00283447
Time = 0.963152

smoothSolver:  Solving for alpha.water, Initial residual = 0.00804946, Final residual = 1.24255e-10, No Iterations 4
Phase-1 volume fraction = 0.127481  Min(alpha1) = -4.26012e-08  Max(alpha1) = 1
MULES: Correcting alpha.water
MULES: Correcting alpha.water
Phase-1 volume fraction = 0.127481  Min(alpha1) = -0.000242906  Max(alpha1) = 1
DICPCG:  Solving for p_rgh, Initial residual = 0.0345104, Final residual = 0.000641426, No Iterations 2
time step continuity errors : sum local = 0.000750708, global = 3.33663e-07, cumulative = 0.00321677
DICPCG:  Solving for p_rgh, Initial residual = 0.000826233, Final residual = 4.09929e-05, No Iterations 26
time step continuity errors : sum local = 4.71314e-05, global = -8.01544e-06, cumulative = 0.00320875
DICPCG:  Solving for p_rgh, Initial residual = 0.000159971, Final residual = 7.54828e-08, No Iterations 53
time step continuity errors : sum local = 8.72144e-08, global = 4.95569e-09, cumulative = 0.00320876
DILUPBiCG:  Solving for T, Initial residual = 0.00102482, Final residual = 6.74002e-09, No Iterations 3
ExecutionTime = 7.45 s  ClockTime = 7 s

Courant Number mean: 0.194504 max: 0.956971
Interface Courant Number mean: 0.0403203 max: 0.721263
deltaT = 0.00283447
Time = 0.965986

smoothSolver:  Solving for alpha.water, Initial residual = 0.0081641, Final residual = 1.29841e-10, No Iterations 4
Phase-1 volume fraction = 0.127481  Min(alpha1) = -8.79845e-14  Max(alpha1) = 1
MULES: Correcting alpha.water
MULES: Correcting alpha.water
Phase-1 volume fraction = 0.127481  Min(alpha1) = -0.000235836  Max(alpha1) = 1
DICPCG:  Solving for p_rgh, Initial residual = 0.0337318, Final residual = 0.000588523, No Iterations 2
time step continuity errors : sum local = 0.00070168, global = 3.57635e-07, cumulative = 0.00320912
DICPCG:  Solving for p_rgh, Initial residual = 0.000765204, Final residual = 3.6142e-05, No Iterations 27
time step continuity errors : sum local = 4.23695e-05, global = -6.1638e-06, cumulative = 0.00320295
DICPCG:  Solving for p_rgh, Initial residual = 0.00015849, Final residual = 8.72502e-08, No Iterations 51
time step continuity errors : sum local = 1.02717e-07, global = -1.41491e-08, cumulative = 0.00320294
DILUPBiCG:  Solving for T, Initial residual = 0.00104916, Final residual = 3.50902e-09, No Iterations 3
ExecutionTime = 7.47 s  ClockTime = 7 s

Courant Number mean: 0.194784 max: 0.926455
Interface Courant Number mean: 0.0393452 max: 0.741442
deltaT = 0.00283447
Time = 0.968821

smoothSolver:  Solving for alpha.water, Initial residual = 0.00824402, Final residual = 1.39586e-10, No Iterations 4
Phase-1 volume fraction = 0.127481  Min(alpha1) = -8.41358e-14  Max(alpha1) = 1
MULES: Correcting alpha.water
MULES: Correcting alpha.water
Phase-1 volume fraction = 0.127481  Min(alpha1) = -0.000189906  Max(alpha1) = 1
DICPCG:  Solving for p_rgh, Initial residual = 0.0361118, Final residual = 0.000595244, No Iterations 2
time step continuity errors : sum local = 0.000721355, global = 2.04158e-07, cumulative = 0.00320314
DICPCG:  Solving for p_rgh, Initial residual = 0.000797385, Final residual = 2.95052e-05, No Iterations 28
time step continuity errors : sum local = 3.49226e-05, global = -7.33119e-06, cumulative = 0.00319581
DICPCG:  Solving for p_rgh, Initial residual = 0.000159626, Final residual = 9.68169e-08, No Iterations 54
time step continuity errors : sum local = 1.15351e-07, global = -4.61922e-09, cumulative = 0.00319581
DILUPBiCG:  Solving for T, Initial residual = 0.00109005, Final residual = 5.92774e-09, No Iterations 3
ExecutionTime = 7.48 s  ClockTime = 8 s

Courant Number mean: 0.195188 max: 0.893454
Interface Courant Number mean: 0.0391753 max: 0.660554
deltaT = 0.00311791
Time = 0.971939

smoothSolver:  Solving for alpha.water, Initial residual = 0.00905288, Final residual = 2.97163e-10, No Iterations 4
Phase-1 volume fraction = 0.127481  Min(alpha1) = -8.01024e-14  Max(alpha1) = 1
MULES: Correcting alpha.water
MULES: Correcting alpha.water
Phase-1 volume fraction = 0.127481  Min(alpha1) = -0.000181833  Max(alpha1) = 1
DICPCG:  Solving for p_rgh, Initial residual = 0.0383878, Final residual = 0.000678999, No Iterations 2
time step continuity errors : sum local = 0.000952561, global = 3.03844e-07, cumulative = 0.00319611
DICPCG:  Solving for p_rgh, Initial residual = 0.000891402, Final residual = 4.25744e-05, No Iterations 28
time step continuity errors : sum local = 5.83063e-05, global = -1.74747e-05, cumulative = 0.00317864
DICPCG:  Solving for p_rgh, Initial residual = 0.000183265, Final residual = 8.72776e-08, No Iterations 52
time step continuity errors : sum local = 1.20777e-07, global = 8.749e-09, cumulative = 0.00317864
DILUPBiCG:  Solving for T, Initial residual = 0.00125002, Final residual = 8.46091e-09, No Iterations 3
ExecutionTime = 7.49 s  ClockTime = 8 s

Courant Number mean: 0.215034 max: 0.947923
Interface Courant Number mean: 0.0434634 max: 0.761797
deltaT = 0.00311791
Time = 0.975057

smoothSolver:  Solving for alpha.water, Initial residual = 0.00897021, Final residual = 3.16769e-10, No Iterations 4
Phase-1 volume fraction = 0.127481  Min(alpha1) = -7.62587e-14  Max(alpha1) = 1
MULES: Correcting alpha.water
MULES: Correcting alpha.water
Phase-1 volume fraction = 0.127481  Min(alpha1) = -0.000148872  Max(alpha1) = 1
DICPCG:  Solving for p_rgh, Initial residual = 0.0345038, Final residual = 0.000643583, No Iterations 2
time step continuity errors : sum local = 0.000907255, global = 6.37494e-07, cumulative = 0.00317928
DICPCG:  Solving for p_rgh, Initial residual = 0.000830413, Final residual = 4.10723e-05, No Iterations 29
time step continuity errors : sum local = 5.68596e-05, global = -2.11874e-05, cumulative = 0.00315809
DICPCG:  Solving for p_rgh, Initial residual = 0.000178061, Final residual = 9.81622e-08, No Iterations 54
time step continuity errors : sum local = 1.37105e-07, global = -2.10038e-09, cumulative = 0.00315809
DILUPBiCG:  Solving for T, Initial residual = 0.00130416, Final residual = 1.47132e-08, No Iterations 3
ExecutionTime = 7.51 s  ClockTime = 8 s

Courant Number mean: 0.215238 max: 0.91044
Interface Courant Number mean: 0.043408 max: 0.785231
deltaT = 0.00311791
Time = 0.978175

smoothSolver:  Solving for alpha.water, Initial residual = 0.00898702, Final residual = 3.50232e-10, No Iterations 4
Phase-1 volume fraction = 0.127481  Min(alpha1) = -2.18229e-10  Max(alpha1) = 1
MULES: Correcting alpha.water
MULES: Correcting alpha.water
Phase-1 volume fraction = 0.127481  Min(alpha1) = -0.00013707  Max(alpha1) = 1
DICPCG:  Solving for p_rgh, Initial residual = 0.0423634, Final residual = 0.00067158, No Iterations 2
time step continuity errors : sum local = 0.000996543, global = 6.94293e-07, cumulative = 0.00315879
DICPCG:  Solving for p_rgh, Initial residual = 0.00087765, Final residual = 4.26547e-05, No Iterations 10
time step continuity errors : sum local = 6.15806e-05, global = 2.75579e-06, cumulative = 0.00316154
DICPCG:  Solving for p_rgh, Initial residual = 0.000190122, Final residual = 9.68974e-08, No Iterations 53
time step continuity errors : sum local = 1.40559e-07, global = 7.63464e-09, cumulative = 0.00316155
DILUPBiCG:  Solving for T, Initial residual = 0.00141892, Final residual = 1.14489e-08, No Iterations 3
ExecutionTime = 7.52 s  ClockTime = 8 s

Courant Number mean: 0.215386 max: 0.888434
Interface Courant Number mean: 0.0429594 max: 0.800119
deltaT = 0.00311791
Time = 0.981293

smoothSolver:  Solving for alpha.water, Initial residual = 0.00902868, Final residual = 3.87387e-10, No Iterations 4
Phase-1 volume fraction = 0.127481  Min(alpha1) = -1.70579e-10  Max(alpha1) = 1
MULES: Correcting alpha.water
MULES: Correcting alpha.water
Phase-1 volume fraction = 0.127481  Min(alpha1) = -0.000117607  Max(alpha1) = 1
DICPCG:  Solving for p_rgh, Initial residual = 0.0372159, Final residual = 0.000671317, No Iterations 2
time step continuity errors : sum local = 0.000960668, global = -2.44374e-07, cumulative = 0.00316131
DICPCG:  Solving for p_rgh, Initial residual = 0.00087322, Final residual = 3.8309e-05, No Iterations 30
time step continuity errors : sum local = 5.36785e-05, global = -1.60221e-05, cumulative = 0.00314528
DICPCG:  Solving for p_rgh, Initial residual = 0.000185782, Final residual = 9.51309e-08, No Iterations 53
time step continuity errors : sum local = 1.34609e-07, global = -3.54527e-09, cumulative = 0.00314528
DILUPBiCG:  Solving for T, Initial residual = 0.00145526, Final residual = 8.7101e-09, No Iterations 3
ExecutionTime = 7.54 s  ClockTime = 8 s

Courant Number mean: 0.215545 max: 0.877583
Interface Courant Number mean: 0.0431587 max: 0.735862
deltaT = 0.00311791
Time = 0.98441

smoothSolver:  Solving for alpha.water, Initial residual = 0.00897363, Final residual = 4.23875e-10, No Iterations 4
Phase-1 volume fraction = 0.127481  Min(alpha1) = -1.28063e-10  Max(alpha1) = 1
MULES: Correcting alpha.water
MULES: Correcting alpha.water
Phase-1 volume fraction = 0.127481  Min(alpha1) = -9.64889e-05  Max(alpha1) = 1
DICPCG:  Solving for p_rgh, Initial residual = 0.0391757, Final residual = 0.000718609, No Iterations 2
time step continuity errors : sum local = 0.00104592, global = 3.01869e-07, cumulative = 0.00314558
DICPCG:  Solving for p_rgh, Initial residual = 0.000930013, Final residual = 3.49775e-05, No Iterations 31
time step continuity errors : sum local = 4.98148e-05, global = -1.66502e-05, cumulative = 0.00312893
DICPCG:  Solving for p_rgh, Initial residual = 0.00020573, Final residual = 8.0615e-08, No Iterations 54
time step continuity errors : sum local = 1.15874e-07, global = -7.95202e-09, cumulative = 0.00312892
DILUPBiCG:  Solving for T, Initial residual = 0.00150621, Final residual = 4.14732e-09, No Iterations 3
ExecutionTime = 7.55 s  ClockTime = 8 s

Courant Number mean: 0.215691 max: 0.901389
Interface Courant Number mean: 0.0444088 max: 0.756236
deltaT = 0.00311791
Time = 0.987528

smoothSolver:  Solving for alpha.water, Initial residual = 0.00898981, Final residual = 4.73557e-10, No Iterations 4
Phase-1 volume fraction = 0.127481  Min(alpha1) = -9.0366e-11  Max(alpha1) = 1
MULES: Correcting alpha.water
MULES: Correcting alpha.water
Phase-1 volume fraction = 0.127481  Min(alpha1) = -7.54552e-05  Max(alpha1) = 1
DICPCG:  Solving for p_rgh, Initial residual = 0.0355361, Final residual = 0.000601775, No Iterations 2
time step continuity errors : sum local = 0.000869693, global = 2.39385e-07, cumulative = 0.00312916
DICPCG:  Solving for p_rgh, Initial residual = 0.000785133, Final residual = 3.62809e-05, No Iterations 8
time step continuity errors : sum local = 5.14471e-05, global = 2.98241e-09, cumulative = 0.00312917
DICPCG:  Solving for p_rgh, Initial residual = 0.000155865, Final residual = 8.74419e-08, No Iterations 52
time step continuity errors : sum local = 1.24358e-07, global = -9.13612e-09, cumulative = 0.00312916
DILUPBiCG:  Solving for T, Initial residual = 0.00159866, Final residual = 4.50764e-09, No Iterations 3
ExecutionTime = 7.56 s  ClockTime = 8 s

Courant Number mean: 0.215958 max: 0.922238
Interface Courant Number mean: 0.0435284 max: 0.768901
deltaT = 0.00311791
Time = 0.990646

smoothSolver:  Solving for alpha.water, Initial residual = 0.0090182, Final residual = 5.20428e-10, No Iterations 4
Phase-1 volume fraction = 0.127481  Min(alpha1) = -5.70309e-11  Max(alpha1) = 1
MULES: Correcting alpha.water
MULES: Correcting alpha.water
Phase-1 volume fraction = 0.127481  Min(alpha1) = -5.66591e-05  Max(alpha1) = 1
DICPCG:  Solving for p_rgh, Initial residual = 0.0374273, Final residual = 0.000700859, No Iterations 2
time step continuity errors : sum local = 0.00101248, global = -5.58213e-07, cumulative = 0.0031286
DICPCG:  Solving for p_rgh, Initial residual = 0.000887679, Final residual = 4.40437e-05, No Iterations 11
time step continuity errors : sum local = 6.23933e-05, global = 3.52006e-06, cumulative = 0.00313212
DICPCG:  Solving for p_rgh, Initial residual = 0.000190322, Final residual = 7.93887e-08, No Iterations 54
time step continuity errors : sum local = 1.1292e-07, global = 3.85128e-09, cumulative = 0.00313212
DILUPBiCG:  Solving for T, Initial residual = 0.00163014, Final residual = 3.67314e-09, No Iterations 3
ExecutionTime = 7.58 s  ClockTime = 8 s

Courant Number mean: 0.216341 max: 0.938815
Interface Courant Number mean: 0.04386 max: 0.733881
deltaT = 0.00311791
Time = 0.993764

smoothSolver:  Solving for alpha.water, Initial residual = 0.00894588, Final residual = 5.59592e-10, No Iterations 4
Phase-1 volume fraction = 0.127481  Min(alpha1) = -5.65097e-14  Max(alpha1) = 1
MULES: Correcting alpha.water
MULES: Correcting alpha.water
Phase-1 volume fraction = 0.127481  Min(alpha1) = -4.41726e-05  Max(alpha1) = 1
DICPCG:  Solving for p_rgh, Initial residual = 0.0325954, Final residual = 0.000645201, No Iterations 2
time step continuity errors : sum local = 0.000927305, global = -8.38465e-07, cumulative = 0.00313128
DICPCG:  Solving for p_rgh, Initial residual = 0.000819872, Final residual = 3.75186e-05, No Iterations 10
time step continuity errors : sum local = 5.30964e-05, global = 3.51651e-06, cumulative = 0.0031348
DICPCG:  Solving for p_rgh, Initial residual = 0.000178556, Final residual = 6.91017e-08, No Iterations 54
time step continuity errors : sum local = 9.83044e-08, global = -1.90147e-09, cumulative = 0.0031348
DILUPBiCG:  Solving for T, Initial residual = 0.00160763, Final residual = 3.64274e-09, No Iterations 3
ExecutionTime = 7.59 s  ClockTime = 8 s

Courant Number mean: 0.216827 max: 0.957035
Interface Courant Number mean: 0.0439132 max: 0.723512
deltaT = 0.00311791
Time = 0.996882

smoothSolver:  Solving for alpha.water, Initial residual = 0.00890394, Final residual = 5.98916e-10, No Iterations 4
Phase-1 volume fraction = 0.127481  Min(alpha1) = -5.37018e-14  Max(alpha1) = 1
MULES: Correcting alpha.water
MULES: Correcting alpha.water
Phase-1 volume fraction = 0.127481  Min(alpha1) = -3.59931e-05  Max(alpha1) = 1
DICPCG:  Solving for p_rgh, Initial residual = 0.0305173, Final residual = 0.000566639, No Iterations 2
time step continuity errors : sum local = 0.000797764, global = -1.07357e-06, cumulative = 0.00313373
DICPCG:  Solving for p_rgh, Initial residual = 0.000749552, Final residual = 3.24253e-05, No Iterations 31
time step continuity errors : sum local = 4.50197e-05, global = -1.04606e-05, cumulative = 0.00312326
DICPCG:  Solving for p_rgh, Initial residual = 0.000166685, Final residual = 9.78217e-08, No Iterations 54
time step continuity errors : sum local = 1.37133e-07, global = -3.29112e-09, cumulative = 0.00312326
DILUPBiCG:  Solving for T, Initial residual = 0.00161256, Final residual = 5.38037e-09, No Iterations 3
ExecutionTime = 7.6 s  ClockTime = 8 s

Courant Number mean: 0.217084 max: 0.977378
Interface Courant Number mean: 0.0443648 max: 0.733127
deltaT = 0.00311791
Time = 1

smoothSolver:  Solving for alpha.water, Initial residual = 0.00885872, Final residual = 6.39889e-10, No Iterations 4
Phase-1 volume fraction = 0.127481  Min(alpha1) = -5.10183e-14  Max(alpha1) = 1
MULES: Correcting alpha.water
MULES: Correcting alpha.water
Phase-1 volume fraction = 0.127481  Min(alpha1) = -3.02155e-05  Max(alpha1) = 1
DICPCG:  Solving for p_rgh, Initial residual = 0.0274456, Final residual = 0.000639663, No Iterations 2
time step continuity errors : sum local = 0.000891206, global = -6.9752e-07, cumulative = 0.00312256
DICPCG:  Solving for p_rgh, Initial residual = 0.000825736, Final residual = 3.86112e-05, No Iterations 12
time step continuity errors : sum local = 5.3179e-05, global = 3.45495e-06, cumulative = 0.00312602
DICPCG:  Solving for p_rgh, Initial residual = 0.000179994, Final residual = 7.00778e-08, No Iterations 55
time step continuity errors : sum local = 9.71109e-08, global = 3.28596e-09, cumulative = 0.00312602
DILUPBiCG:  Solving for T, Initial residual = 0.0016106, Final residual = 8.88244e-08, No Iterations 2
ExecutionTime = 7.63 s  ClockTime = 8 s

End

